
---------- Begin Simulation Statistics ----------
final_tick                               119422580000                       # Number of ticks from beginning of simulation (restored from checkpoints and never reset)
host_inst_rate                                 198974                       # Simulator instruction rate (inst/s)
host_mem_usage                                 699632                       # Number of bytes of host memory used
host_op_rate                                   201168                       # Simulator op (including micro ops) rate (op/s)
host_seconds                                   502.58                       # Real time elapsed on the host
host_tick_rate                              237619336                       # Simulator tick rate (ticks/s)
sim_freq                                 1000000000000                       # Frequency of simulated ticks
sim_insts                                   100000000                       # Number of instructions simulated
sim_ops                                     101102729                       # Number of ops (including micro ops) simulated
sim_seconds                                  0.119423                       # Number of seconds simulated
sim_ticks                                119422580000                       # Number of ticks simulated
system.cpu.branchPred.BTBCorrect                    0                       # Number of correct BTB predictions (this stat may not work properly.
system.cpu.branchPred.BTBHitPct             84.202734                       # BTB Hit Percentage
system.cpu.branchPred.BTBHits                 4081448                       # Number of BTB hits
system.cpu.branchPred.BTBLookups              4847168                       # Number of BTB lookups
system.cpu.branchPred.RASInCorrect                 19                       # Number of incorrect RAS predictions.
system.cpu.branchPred.condIncorrect            352136                       # Number of conditional branches incorrect
system.cpu.branchPred.condPredicted           5086620                       # Number of conditional branches predicted
system.cpu.branchPred.indirectHits             102865                       # Number of indirect target hits.
system.cpu.branchPred.indirectLookups          676142                       # Number of indirect predictor lookups.
system.cpu.branchPred.indirectMisses           573277                       # Number of indirect misses.
system.cpu.branchPred.lookups                 6494688                       # Number of BP lookups
system.cpu.branchPred.usedRAS                  314206                       # Number of times the RAS was used to get a target.
system.cpu.branchPredindirectMispredicted        37627                       # Number of mispredicted indirect branches.
system.cpu.committedInsts                   100000000                       # Number of instructions committed
system.cpu.committedOps                     101102729                       # Number of ops (including micro ops) committed
system.cpu.cpi                               1.194226                       # CPI: cycles per instruction
system.cpu.discardedOps                        965783                       # Number of ops (including micro ops) which were discarded before commit
system.cpu.dtb.accesses                             0                       # DTB accesses
system.cpu.dtb.align_faults                         0                       # Number of TLB faults due to alignment restrictions
system.cpu.dtb.domain_faults                        0                       # Number of TLB faults due to domain restrictions
system.cpu.dtb.flush_entries                        0                       # Number of entries that have been flushed from TLB
system.cpu.dtb.flush_tlb                            0                       # Number of times complete TLB was flushed
system.cpu.dtb.flush_tlb_asid                       0                       # Number of times TLB was flushed by ASID
system.cpu.dtb.flush_tlb_mva                        0                       # Number of times TLB was flushed by MVA
system.cpu.dtb.flush_tlb_mva_asid                   0                       # Number of times TLB was flushed by MVA & ASID
system.cpu.dtb.hits                                 0                       # DTB hits
system.cpu.dtb.inst_accesses                        0                       # ITB inst accesses
system.cpu.dtb.inst_hits                            0                       # ITB inst hits
system.cpu.dtb.inst_misses                          0                       # ITB inst misses
system.cpu.dtb.misses                               0                       # DTB misses
system.cpu.dtb.perms_faults                         0                       # Number of TLB faults due to permissions restrictions
system.cpu.dtb.prefetch_faults                      0                       # Number of TLB faults due to prefetch
system.cpu.dtb.read_accesses                        0                       # DTB read accesses
system.cpu.dtb.read_hits                            0                       # DTB read hits
system.cpu.dtb.read_misses                          0                       # DTB read misses
system.cpu.dtb.stage2_mmu.stage2_tlb.accesses            0                       # DTB accesses
system.cpu.dtb.stage2_mmu.stage2_tlb.align_faults            0                       # Number of TLB faults due to alignment restrictions
system.cpu.dtb.stage2_mmu.stage2_tlb.domain_faults            0                       # Number of TLB faults due to domain restrictions
system.cpu.dtb.stage2_mmu.stage2_tlb.flush_entries            0                       # Number of entries that have been flushed from TLB
system.cpu.dtb.stage2_mmu.stage2_tlb.flush_tlb            0                       # Number of times complete TLB was flushed
system.cpu.dtb.stage2_mmu.stage2_tlb.flush_tlb_asid            0                       # Number of times TLB was flushed by ASID
system.cpu.dtb.stage2_mmu.stage2_tlb.flush_tlb_mva            0                       # Number of times TLB was flushed by MVA
system.cpu.dtb.stage2_mmu.stage2_tlb.flush_tlb_mva_asid            0                       # Number of times TLB was flushed by MVA & ASID
system.cpu.dtb.stage2_mmu.stage2_tlb.hits            0                       # DTB hits
system.cpu.dtb.stage2_mmu.stage2_tlb.inst_accesses            0                       # ITB inst accesses
system.cpu.dtb.stage2_mmu.stage2_tlb.inst_hits            0                       # ITB inst hits
system.cpu.dtb.stage2_mmu.stage2_tlb.inst_misses            0                       # ITB inst misses
system.cpu.dtb.stage2_mmu.stage2_tlb.misses            0                       # DTB misses
system.cpu.dtb.stage2_mmu.stage2_tlb.perms_faults            0                       # Number of TLB faults due to permissions restrictions
system.cpu.dtb.stage2_mmu.stage2_tlb.prefetch_faults            0                       # Number of TLB faults due to prefetch
system.cpu.dtb.stage2_mmu.stage2_tlb.read_accesses            0                       # DTB read accesses
system.cpu.dtb.stage2_mmu.stage2_tlb.read_hits            0                       # DTB read hits
system.cpu.dtb.stage2_mmu.stage2_tlb.read_misses            0                       # DTB read misses
system.cpu.dtb.stage2_mmu.stage2_tlb.walker.walkRequestOrigin_Requested::Data            0                       # Table walker requests started/completed, data/inst
system.cpu.dtb.stage2_mmu.stage2_tlb.walker.walkRequestOrigin_Requested::Inst            0                       # Table walker requests started/completed, data/inst
system.cpu.dtb.stage2_mmu.stage2_tlb.walker.walkRequestOrigin_Requested::total            0                       # Table walker requests started/completed, data/inst
system.cpu.dtb.stage2_mmu.stage2_tlb.walker.walkRequestOrigin_Completed::Data            0                       # Table walker requests started/completed, data/inst
system.cpu.dtb.stage2_mmu.stage2_tlb.walker.walkRequestOrigin_Completed::Inst            0                       # Table walker requests started/completed, data/inst
system.cpu.dtb.stage2_mmu.stage2_tlb.walker.walkRequestOrigin_Completed::total            0                       # Table walker requests started/completed, data/inst
system.cpu.dtb.stage2_mmu.stage2_tlb.walker.walkRequestOrigin::total            0                       # Table walker requests started/completed, data/inst
system.cpu.dtb.stage2_mmu.stage2_tlb.walker.walks            0                       # Table walker walks requested
system.cpu.dtb.stage2_mmu.stage2_tlb.write_accesses            0                       # DTB write accesses
system.cpu.dtb.stage2_mmu.stage2_tlb.write_hits            0                       # DTB write hits
system.cpu.dtb.stage2_mmu.stage2_tlb.write_misses            0                       # DTB write misses
system.cpu.dtb.walker.walkRequestOrigin_Requested::Data            0                       # Table walker requests started/completed, data/inst
system.cpu.dtb.walker.walkRequestOrigin_Requested::Inst            0                       # Table walker requests started/completed, data/inst
system.cpu.dtb.walker.walkRequestOrigin_Requested::total            0                       # Table walker requests started/completed, data/inst
system.cpu.dtb.walker.walkRequestOrigin_Completed::Data            0                       # Table walker requests started/completed, data/inst
system.cpu.dtb.walker.walkRequestOrigin_Completed::Inst            0                       # Table walker requests started/completed, data/inst
system.cpu.dtb.walker.walkRequestOrigin_Completed::total            0                       # Table walker requests started/completed, data/inst
system.cpu.dtb.walker.walkRequestOrigin::total            0                       # Table walker requests started/completed, data/inst
system.cpu.dtb.walker.walks                         0                       # Table walker walks requested
system.cpu.dtb.write_accesses                       0                       # DTB write accesses
system.cpu.dtb.write_hits                           0                       # DTB write hits
system.cpu.dtb.write_misses                         0                       # DTB write misses
system.cpu.fetch2.amo_instructions                  0                       # Number of memory atomic instructions successfully decoded
system.cpu.fetch2.fp_instructions                   0                       # Number of floating point instructions successfully decoded
system.cpu.fetch2.int_instructions           48878512                       # Number of integer instructions successfully decoded
system.cpu.fetch2.load_instructions          40561092                       # Number of memory load instructions successfully decoded
system.cpu.fetch2.store_instructions          6265339                       # Number of memory store instructions successfully decoded
system.cpu.fetch2.vec_instructions                  0                       # Number of SIMD instructions successfully decoded
system.cpu.idleCycles                         3414851                       # Total number of cycles that the object has spent stopped
system.cpu.ipc                               0.837363                       # IPC: instructions per cycle
system.cpu.itb.accesses                             0                       # DTB accesses
system.cpu.itb.align_faults                         0                       # Number of TLB faults due to alignment restrictions
system.cpu.itb.domain_faults                        0                       # Number of TLB faults due to domain restrictions
system.cpu.itb.flush_entries                        0                       # Number of entries that have been flushed from TLB
system.cpu.itb.flush_tlb                            0                       # Number of times complete TLB was flushed
system.cpu.itb.flush_tlb_asid                       0                       # Number of times TLB was flushed by ASID
system.cpu.itb.flush_tlb_mva                        0                       # Number of times TLB was flushed by MVA
system.cpu.itb.flush_tlb_mva_asid                   0                       # Number of times TLB was flushed by MVA & ASID
system.cpu.itb.hits                                 0                       # DTB hits
system.cpu.itb.inst_accesses                        0                       # ITB inst accesses
system.cpu.itb.inst_hits                            0                       # ITB inst hits
system.cpu.itb.inst_misses                          0                       # ITB inst misses
system.cpu.itb.misses                               0                       # DTB misses
system.cpu.itb.perms_faults                         0                       # Number of TLB faults due to permissions restrictions
system.cpu.itb.prefetch_faults                      0                       # Number of TLB faults due to prefetch
system.cpu.itb.read_accesses                        0                       # DTB read accesses
system.cpu.itb.read_hits                            0                       # DTB read hits
system.cpu.itb.read_misses                          0                       # DTB read misses
system.cpu.itb.stage2_mmu.stage2_tlb.accesses            0                       # DTB accesses
system.cpu.itb.stage2_mmu.stage2_tlb.align_faults            0                       # Number of TLB faults due to alignment restrictions
system.cpu.itb.stage2_mmu.stage2_tlb.domain_faults            0                       # Number of TLB faults due to domain restrictions
system.cpu.itb.stage2_mmu.stage2_tlb.flush_entries            0                       # Number of entries that have been flushed from TLB
system.cpu.itb.stage2_mmu.stage2_tlb.flush_tlb            0                       # Number of times complete TLB was flushed
system.cpu.itb.stage2_mmu.stage2_tlb.flush_tlb_asid            0                       # Number of times TLB was flushed by ASID
system.cpu.itb.stage2_mmu.stage2_tlb.flush_tlb_mva            0                       # Number of times TLB was flushed by MVA
system.cpu.itb.stage2_mmu.stage2_tlb.flush_tlb_mva_asid            0                       # Number of times TLB was flushed by MVA & ASID
system.cpu.itb.stage2_mmu.stage2_tlb.hits            0                       # DTB hits
system.cpu.itb.stage2_mmu.stage2_tlb.inst_accesses            0                       # ITB inst accesses
system.cpu.itb.stage2_mmu.stage2_tlb.inst_hits            0                       # ITB inst hits
system.cpu.itb.stage2_mmu.stage2_tlb.inst_misses            0                       # ITB inst misses
system.cpu.itb.stage2_mmu.stage2_tlb.misses            0                       # DTB misses
system.cpu.itb.stage2_mmu.stage2_tlb.perms_faults            0                       # Number of TLB faults due to permissions restrictions
system.cpu.itb.stage2_mmu.stage2_tlb.prefetch_faults            0                       # Number of TLB faults due to prefetch
system.cpu.itb.stage2_mmu.stage2_tlb.read_accesses            0                       # DTB read accesses
system.cpu.itb.stage2_mmu.stage2_tlb.read_hits            0                       # DTB read hits
system.cpu.itb.stage2_mmu.stage2_tlb.read_misses            0                       # DTB read misses
system.cpu.itb.stage2_mmu.stage2_tlb.walker.walkRequestOrigin_Requested::Data            0                       # Table walker requests started/completed, data/inst
system.cpu.itb.stage2_mmu.stage2_tlb.walker.walkRequestOrigin_Requested::Inst            0                       # Table walker requests started/completed, data/inst
system.cpu.itb.stage2_mmu.stage2_tlb.walker.walkRequestOrigin_Requested::total            0                       # Table walker requests started/completed, data/inst
system.cpu.itb.stage2_mmu.stage2_tlb.walker.walkRequestOrigin_Completed::Data            0                       # Table walker requests started/completed, data/inst
system.cpu.itb.stage2_mmu.stage2_tlb.walker.walkRequestOrigin_Completed::Inst            0                       # Table walker requests started/completed, data/inst
system.cpu.itb.stage2_mmu.stage2_tlb.walker.walkRequestOrigin_Completed::total            0                       # Table walker requests started/completed, data/inst
system.cpu.itb.stage2_mmu.stage2_tlb.walker.walkRequestOrigin::total            0                       # Table walker requests started/completed, data/inst
system.cpu.itb.stage2_mmu.stage2_tlb.walker.walks            0                       # Table walker walks requested
system.cpu.itb.stage2_mmu.stage2_tlb.write_accesses            0                       # DTB write accesses
system.cpu.itb.stage2_mmu.stage2_tlb.write_hits            0                       # DTB write hits
system.cpu.itb.stage2_mmu.stage2_tlb.write_misses            0                       # DTB write misses
system.cpu.itb.walker.walkRequestOrigin_Requested::Data            0                       # Table walker requests started/completed, data/inst
system.cpu.itb.walker.walkRequestOrigin_Requested::Inst            0                       # Table walker requests started/completed, data/inst
system.cpu.itb.walker.walkRequestOrigin_Requested::total            0                       # Table walker requests started/completed, data/inst
system.cpu.itb.walker.walkRequestOrigin_Completed::Data            0                       # Table walker requests started/completed, data/inst
system.cpu.itb.walker.walkRequestOrigin_Completed::Inst            0                       # Table walker requests started/completed, data/inst
system.cpu.itb.walker.walkRequestOrigin_Completed::total            0                       # Table walker requests started/completed, data/inst
system.cpu.itb.walker.walkRequestOrigin::total            0                       # Table walker requests started/completed, data/inst
system.cpu.itb.walker.walks                         0                       # Table walker walks requested
system.cpu.itb.write_accesses                       0                       # DTB write accesses
system.cpu.itb.write_hits                           0                       # DTB write hits
system.cpu.itb.write_misses                         0                       # DTB write misses
system.cpu.numCycles                        119422580                       # number of cpu cycles simulated
system.cpu.numFetchSuspends                         0                       # Number of times Execute suspended instruction fetching
system.cpu.numWorkItemsCompleted                    0                       # number of work items this cpu completed
system.cpu.numWorkItemsStarted                      0                       # number of work items this cpu started
system.cpu.op_class_0::No_OpClass                   0      0.00%      0.00% # Class of committed instruction
system.cpu.op_class_0::IntAlu                55115655     54.51%     54.51% # Class of committed instruction
system.cpu.op_class_0::IntMult                 167845      0.17%     54.68% # Class of committed instruction
system.cpu.op_class_0::IntDiv                       0      0.00%     54.68% # Class of committed instruction
system.cpu.op_class_0::FloatAdd                     0      0.00%     54.68% # Class of committed instruction
system.cpu.op_class_0::FloatCmp                     0      0.00%     54.68% # Class of committed instruction
system.cpu.op_class_0::FloatCvt                     0      0.00%     54.68% # Class of committed instruction
system.cpu.op_class_0::FloatMult                    0      0.00%     54.68% # Class of committed instruction
system.cpu.op_class_0::FloatMultAcc                 0      0.00%     54.68% # Class of committed instruction
system.cpu.op_class_0::FloatDiv                     0      0.00%     54.68% # Class of committed instruction
system.cpu.op_class_0::FloatMisc                    0      0.00%     54.68% # Class of committed instruction
system.cpu.op_class_0::FloatSqrt                    0      0.00%     54.68% # Class of committed instruction
system.cpu.op_class_0::SimdAdd                    380      0.00%     54.68% # Class of committed instruction
system.cpu.op_class_0::SimdAddAcc                   0      0.00%     54.68% # Class of committed instruction
system.cpu.op_class_0::SimdAlu                    470      0.00%     54.68% # Class of committed instruction
system.cpu.op_class_0::SimdCmp                    382      0.00%     54.68% # Class of committed instruction
system.cpu.op_class_0::SimdCvt                      0      0.00%     54.68% # Class of committed instruction
system.cpu.op_class_0::SimdMisc                    53      0.00%     54.68% # Class of committed instruction
system.cpu.op_class_0::SimdMult                     0      0.00%     54.68% # Class of committed instruction
system.cpu.op_class_0::SimdMultAcc                  0      0.00%     54.68% # Class of committed instruction
system.cpu.op_class_0::SimdShift                    0      0.00%     54.68% # Class of committed instruction
system.cpu.op_class_0::SimdShiftAcc                 0      0.00%     54.68% # Class of committed instruction
system.cpu.op_class_0::SimdDiv                      0      0.00%     54.68% # Class of committed instruction
system.cpu.op_class_0::SimdSqrt                     0      0.00%     54.68% # Class of committed instruction
system.cpu.op_class_0::SimdFloatAdd            267609      0.26%     54.95% # Class of committed instruction
system.cpu.op_class_0::SimdFloatAlu                 0      0.00%     54.95% # Class of committed instruction
system.cpu.op_class_0::SimdFloatCmp            259630      0.26%     55.20% # Class of committed instruction
system.cpu.op_class_0::SimdFloatCvt            161456      0.16%     55.36% # Class of committed instruction
system.cpu.op_class_0::SimdFloatDiv             54308      0.05%     55.42% # Class of committed instruction
system.cpu.op_class_0::SimdFloatMisc           483618      0.48%     55.90% # Class of committed instruction
system.cpu.op_class_0::SimdFloatMult            33524      0.03%     55.93% # Class of committed instruction
system.cpu.op_class_0::SimdFloatMultAcc         11115      0.01%     55.94% # Class of committed instruction
system.cpu.op_class_0::SimdFloatSqrt                0      0.00%     55.94% # Class of committed instruction
system.cpu.op_class_0::SimdReduceAdd                0      0.00%     55.94% # Class of committed instruction
system.cpu.op_class_0::SimdReduceAlu                0      0.00%     55.94% # Class of committed instruction
system.cpu.op_class_0::SimdReduceCmp                0      0.00%     55.94% # Class of committed instruction
system.cpu.op_class_0::SimdFloatReduceAdd            0      0.00%     55.94% # Class of committed instruction
system.cpu.op_class_0::SimdFloatReduceCmp            0      0.00%     55.94% # Class of committed instruction
system.cpu.op_class_0::SimdAes                      0      0.00%     55.94% # Class of committed instruction
system.cpu.op_class_0::SimdAesMix                   0      0.00%     55.94% # Class of committed instruction
system.cpu.op_class_0::SimdSha1Hash                 0      0.00%     55.94% # Class of committed instruction
system.cpu.op_class_0::SimdSha1Hash2                0      0.00%     55.94% # Class of committed instruction
system.cpu.op_class_0::SimdSha256Hash               0      0.00%     55.94% # Class of committed instruction
system.cpu.op_class_0::SimdSha256Hash2              0      0.00%     55.94% # Class of committed instruction
system.cpu.op_class_0::SimdShaSigma2                0      0.00%     55.94% # Class of committed instruction
system.cpu.op_class_0::SimdShaSigma3                0      0.00%     55.94% # Class of committed instruction
system.cpu.op_class_0::SimdPredAlu                  0      0.00%     55.94% # Class of committed instruction
system.cpu.op_class_0::MemRead               38167638     37.75%     93.69% # Class of committed instruction
system.cpu.op_class_0::MemWrite               6379046      6.31%    100.00% # Class of committed instruction
system.cpu.op_class_0::FloatMemRead                 0      0.00%    100.00% # Class of committed instruction
system.cpu.op_class_0::FloatMemWrite                0      0.00%    100.00% # Class of committed instruction
system.cpu.op_class_0::IprAccess                    0      0.00%    100.00% # Class of committed instruction
system.cpu.op_class_0::InstPrefetch                 0      0.00%    100.00% # Class of committed instruction
system.cpu.op_class_0::total                101102729                       # Class of committed instruction
system.cpu.tickCycles                       116007729                       # Number of cycles that the object actually ticked
system.cpu.workload.numSyscalls                    32                       # Number of system calls
system.membus.snoop_filter.hit_multi_requests            0                       # Number of requests hitting in the snoop filter with multiple (>1) holders of the requested data.
system.membus.snoop_filter.hit_multi_snoops            0                       # Number of snoops hitting in the snoop filter with multiple (>1) holders of the requested data.
system.membus.snoop_filter.hit_single_requests            0                       # Number of requests hitting in the snoop filter with a single holder of the requested data.
system.membus.snoop_filter.hit_single_snoops            0                       # Number of snoops hitting in the snoop filter with a single holder of the requested data.
system.membus.snoop_filter.tot_requests         10364                       # Total number of requests made to the snoop filter.
system.membus.snoop_filter.tot_snoops               0                       # Total number of snoops made to the snoop filter.
system.tol2bus.snoop_filter.hit_multi_requests          898                       # Number of requests hitting in the snoop filter with multiple (>1) holders of the requested data.
system.tol2bus.snoop_filter.hit_multi_snoops            0                       # Number of snoops hitting in the snoop filter with multiple (>1) holders of the requested data.
system.tol2bus.snoop_filter.hit_single_requests        95438                       # Number of requests hitting in the snoop filter with a single holder of the requested data.
system.tol2bus.snoop_filter.hit_single_snoops            0                       # Number of snoops hitting in the snoop filter with a single holder of the requested data.
system.tol2bus.snoop_filter.tot_requests       196403                       # Total number of requests made to the snoop filter.
system.tol2bus.snoop_filter.tot_snoops              0                       # Total number of snoops made to the snoop filter.
system.membus.pwrStateResidencyTicks::UNDEFINED 119422580000                       # Cumulative time (in ticks) in various power states
system.membus.trans_dist::ReadResp               3066                       # Transaction distribution
system.membus.trans_dist::ReadExReq              7298                       # Transaction distribution
system.membus.trans_dist::ReadExResp             7298                       # Transaction distribution
system.membus.trans_dist::ReadSharedReq          3066                       # Transaction distribution
system.membus.pkt_count_system.l2.mem_side::system.mem_ctrls.port        20728                       # Packet count per connected master and slave (bytes)
system.membus.pkt_count::total                  20728                       # Packet count per connected master and slave (bytes)
system.membus.pkt_size_system.l2.mem_side::system.mem_ctrls.port       331648                       # Cumulative packet size per connected master and slave (bytes)
system.membus.pkt_size::total                  331648                       # Cumulative packet size per connected master and slave (bytes)
system.membus.snoops                                0                       # Total snoops (count)
system.membus.snoopTraffic                          0                       # Total snoop traffic (bytes)
system.membus.snoop_fanout::samples             10364                       # Request fanout histogram
system.membus.snoop_fanout::mean                    0                       # Request fanout histogram
system.membus.snoop_fanout::stdev                   0                       # Request fanout histogram
system.membus.snoop_fanout::underflows              0      0.00%      0.00% # Request fanout histogram
system.membus.snoop_fanout::0                   10364    100.00%    100.00% # Request fanout histogram
system.membus.snoop_fanout::1                       0      0.00%    100.00% # Request fanout histogram
system.membus.snoop_fanout::overflows               0      0.00%    100.00% # Request fanout histogram
system.membus.snoop_fanout::min_value               0                       # Request fanout histogram
system.membus.snoop_fanout::max_value               0                       # Request fanout histogram
system.membus.snoop_fanout::total               10364                       # Request fanout histogram
system.membus.respLayer1.occupancy           34297250                       # Layer occupancy (ticks)
system.membus.respLayer1.utilization              0.0                       # Layer utilization (%)
system.membus.reqLayer0.occupancy            10364000                       # Layer occupancy (ticks)
system.membus.reqLayer0.utilization               0.0                       # Layer utilization (%)
system.tol2bus.pwrStateResidencyTicks::UNDEFINED 119422580000                       # Cumulative time (in ticks) in various power states
system.tol2bus.trans_dist::ReadResp             40023                       # Transaction distribution
system.tol2bus.trans_dist::WritebackDirty        86845                       # Transaction distribution
system.tol2bus.trans_dist::WritebackClean         7068                       # Transaction distribution
system.tol2bus.trans_dist::CleanEvict            1510                       # Transaction distribution
system.tol2bus.trans_dist::ReadExReq            60957                       # Transaction distribution
system.tol2bus.trans_dist::ReadExResp           60957                       # Transaction distribution
system.tol2bus.trans_dist::ReadCleanReq          8529                       # Transaction distribution
system.tol2bus.trans_dist::ReadSharedReq        31494                       # Transaction distribution
system.tol2bus.pkt_count_system.cpu.icache.mem_side::system.l2.cpu_side        24126                       # Packet count per connected master and slave (bytes)
system.tol2bus.pkt_count_system.cpu.dcache.mem_side::system.l2.cpu_side       273257                       # Packet count per connected master and slave (bytes)
system.tol2bus.pkt_count::total                297383                       # Packet count per connected master and slave (bytes)
system.tol2bus.pkt_size_system.cpu.icache.mem_side::system.l2.cpu_side       499104                       # Cumulative packet size per connected master and slave (bytes)
system.tol2bus.pkt_size_system.cpu.dcache.mem_side::system.l2.cpu_side      5737472                       # Cumulative packet size per connected master and slave (bytes)
system.tol2bus.pkt_size::total                6236576                       # Cumulative packet size per connected master and slave (bytes)
system.tol2bus.snoops                               0                       # Total snoops (count)
system.tol2bus.snoopTraffic                         0                       # Total snoop traffic (bytes)
system.tol2bus.snoop_fanout::samples           100980                       # Request fanout histogram
system.tol2bus.snoop_fanout::mean            0.009041                       # Request fanout histogram
system.tol2bus.snoop_fanout::stdev           0.094656                       # Request fanout histogram
system.tol2bus.snoop_fanout::underflows             0      0.00%      0.00% # Request fanout histogram
system.tol2bus.snoop_fanout::0                 100067     99.10%     99.10% # Request fanout histogram
system.tol2bus.snoop_fanout::1                    913      0.90%    100.00% # Request fanout histogram
system.tol2bus.snoop_fanout::2                      0      0.00%    100.00% # Request fanout histogram
system.tol2bus.snoop_fanout::overflows              0      0.00%    100.00% # Request fanout histogram
system.tol2bus.snoop_fanout::min_value              0                       # Request fanout histogram
system.tol2bus.snoop_fanout::max_value              1                       # Request fanout histogram
system.tol2bus.snoop_fanout::total             100980                       # Request fanout histogram
system.tol2bus.reqLayer0.occupancy          290316000                       # Layer occupancy (ticks)
system.tol2bus.reqLayer0.utilization              0.2                       # Layer utilization (%)
system.tol2bus.respLayer1.occupancy         184908993                       # Layer occupancy (ticks)
system.tol2bus.respLayer1.utilization             0.2                       # Layer utilization (%)
system.tol2bus.respLayer0.occupancy          17058000                       # Layer occupancy (ticks)
system.tol2bus.respLayer0.utilization             0.0                       # Layer utilization (%)
system.voltage_domain.voltage                       1                       # Voltage in Volts
system.clk_domain.clock                          1000                       # Clock period in ticks
system.l2.pwrStateResidencyTicks::UNDEFINED 119422580000                       # Cumulative time (in ticks) in various power states
system.l2.demand_hits::.cpu.inst                 6391                       # number of demand (read+write) hits
system.l2.demand_hits::.cpu.data                84218                       # number of demand (read+write) hits
system.l2.demand_hits::total                    90609                       # number of demand (read+write) hits
system.l2.overall_hits::.cpu.inst                6391                       # number of overall hits
system.l2.overall_hits::.cpu.data               84218                       # number of overall hits
system.l2.overall_hits::total                   90609                       # number of overall hits
system.l2.demand_misses::.cpu.inst               2138                       # number of demand (read+write) misses
system.l2.demand_misses::.cpu.data               8233                       # number of demand (read+write) misses
system.l2.demand_misses::total                  10371                       # number of demand (read+write) misses
system.l2.overall_misses::.cpu.inst              2138                       # number of overall misses
system.l2.overall_misses::.cpu.data              8233                       # number of overall misses
system.l2.overall_misses::total                 10371                       # number of overall misses
system.l2.demand_miss_latency::.cpu.inst    205308000                       # number of demand (read+write) miss cycles
system.l2.demand_miss_latency::.cpu.data    807125000                       # number of demand (read+write) miss cycles
system.l2.demand_miss_latency::total       1012433000                       # number of demand (read+write) miss cycles
system.l2.overall_miss_latency::.cpu.inst    205308000                       # number of overall miss cycles
system.l2.overall_miss_latency::.cpu.data    807125000                       # number of overall miss cycles
system.l2.overall_miss_latency::total      1012433000                       # number of overall miss cycles
system.l2.demand_accesses::.cpu.inst             8529                       # number of demand (read+write) accesses
system.l2.demand_accesses::.cpu.data            92451                       # number of demand (read+write) accesses
system.l2.demand_accesses::total               100980                       # number of demand (read+write) accesses
system.l2.overall_accesses::.cpu.inst            8529                       # number of overall (read+write) accesses
system.l2.overall_accesses::.cpu.data           92451                       # number of overall (read+write) accesses
system.l2.overall_accesses::total              100980                       # number of overall (read+write) accesses
system.l2.demand_miss_rate::.cpu.inst        0.250674                       # miss rate for demand accesses
system.l2.demand_miss_rate::.cpu.data        0.089053                       # miss rate for demand accesses
system.l2.demand_miss_rate::total            0.102704                       # miss rate for demand accesses
system.l2.overall_miss_rate::.cpu.inst       0.250674                       # miss rate for overall accesses
system.l2.overall_miss_rate::.cpu.data       0.089053                       # miss rate for overall accesses
system.l2.overall_miss_rate::total           0.102704                       # miss rate for overall accesses
system.l2.demand_avg_miss_latency::.cpu.inst 96028.063611                       # average overall miss latency
system.l2.demand_avg_miss_latency::.cpu.data 98035.345561                       # average overall miss latency
system.l2.demand_avg_miss_latency::total 97621.540835                       # average overall miss latency
system.l2.overall_avg_miss_latency::.cpu.inst 96028.063611                       # average overall miss latency
system.l2.overall_avg_miss_latency::.cpu.data 98035.345561                       # average overall miss latency
system.l2.overall_avg_miss_latency::total 97621.540835                       # average overall miss latency
system.l2.blocked_cycles::no_mshrs                  0                       # number of cycles access was blocked
system.l2.blocked_cycles::no_targets                0                       # number of cycles access was blocked
system.l2.blocked::no_mshrs                         0                       # number of cycles access was blocked
system.l2.blocked::no_targets                       0                       # number of cycles access was blocked
system.l2.avg_blocked_cycles::no_mshrs            nan                       # average number of cycles each access was blocked
system.l2.avg_blocked_cycles::no_targets          nan                       # average number of cycles each access was blocked
system.l2.demand_mshr_hits::.cpu.data               7                       # number of demand (read+write) MSHR hits
system.l2.demand_mshr_hits::total                   7                       # number of demand (read+write) MSHR hits
system.l2.overall_mshr_hits::.cpu.data              7                       # number of overall MSHR hits
system.l2.overall_mshr_hits::total                  7                       # number of overall MSHR hits
system.l2.demand_mshr_misses::.cpu.inst          2138                       # number of demand (read+write) MSHR misses
system.l2.demand_mshr_misses::.cpu.data          8226                       # number of demand (read+write) MSHR misses
system.l2.demand_mshr_misses::total             10364                       # number of demand (read+write) MSHR misses
system.l2.overall_mshr_misses::.cpu.inst         2138                       # number of overall MSHR misses
system.l2.overall_mshr_misses::.cpu.data         8226                       # number of overall MSHR misses
system.l2.overall_mshr_misses::total            10364                       # number of overall MSHR misses
system.l2.demand_mshr_miss_latency::.cpu.inst    162548000                       # number of demand (read+write) MSHR miss cycles
system.l2.demand_mshr_miss_latency::.cpu.data    642047000                       # number of demand (read+write) MSHR miss cycles
system.l2.demand_mshr_miss_latency::total    804595000                       # number of demand (read+write) MSHR miss cycles
system.l2.overall_mshr_miss_latency::.cpu.inst    162548000                       # number of overall MSHR miss cycles
system.l2.overall_mshr_miss_latency::.cpu.data    642047000                       # number of overall MSHR miss cycles
system.l2.overall_mshr_miss_latency::total    804595000                       # number of overall MSHR miss cycles
system.l2.demand_mshr_miss_rate::.cpu.inst     0.250674                       # mshr miss rate for demand accesses
system.l2.demand_mshr_miss_rate::.cpu.data     0.088977                       # mshr miss rate for demand accesses
system.l2.demand_mshr_miss_rate::total       0.102634                       # mshr miss rate for demand accesses
system.l2.overall_mshr_miss_rate::.cpu.inst     0.250674                       # mshr miss rate for overall accesses
system.l2.overall_mshr_miss_rate::.cpu.data     0.088977                       # mshr miss rate for overall accesses
system.l2.overall_mshr_miss_rate::total      0.102634                       # mshr miss rate for overall accesses
system.l2.demand_avg_mshr_miss_latency::.cpu.inst 76028.063611                       # average overall mshr miss latency
system.l2.demand_avg_mshr_miss_latency::.cpu.data 78050.936056                       # average overall mshr miss latency
system.l2.demand_avg_mshr_miss_latency::total 77633.635662                       # average overall mshr miss latency
system.l2.overall_avg_mshr_miss_latency::.cpu.inst 76028.063611                       # average overall mshr miss latency
system.l2.overall_avg_mshr_miss_latency::.cpu.data 78050.936056                       # average overall mshr miss latency
system.l2.overall_avg_mshr_miss_latency::total 77633.635662                       # average overall mshr miss latency
system.l2.replacements                              0                       # number of replacements
system.l2.WritebackDirty_hits::.writebacks        86845                       # number of WritebackDirty hits
system.l2.WritebackDirty_hits::total            86845                       # number of WritebackDirty hits
system.l2.WritebackDirty_accesses::.writebacks        86845                       # number of WritebackDirty accesses(hits+misses)
system.l2.WritebackDirty_accesses::total        86845                       # number of WritebackDirty accesses(hits+misses)
system.l2.WritebackClean_hits::.writebacks         6547                       # number of WritebackClean hits
system.l2.WritebackClean_hits::total             6547                       # number of WritebackClean hits
system.l2.WritebackClean_accesses::.writebacks         6547                       # number of WritebackClean accesses(hits+misses)
system.l2.WritebackClean_accesses::total         6547                       # number of WritebackClean accesses(hits+misses)
system.l2.ReadExReq_hits::.cpu.data             53659                       # number of ReadExReq hits
system.l2.ReadExReq_hits::total                 53659                       # number of ReadExReq hits
system.l2.ReadExReq_misses::.cpu.data            7298                       # number of ReadExReq misses
system.l2.ReadExReq_misses::total                7298                       # number of ReadExReq misses
system.l2.ReadExReq_miss_latency::.cpu.data    712855000                       # number of ReadExReq miss cycles
system.l2.ReadExReq_miss_latency::total     712855000                       # number of ReadExReq miss cycles
system.l2.ReadExReq_accesses::.cpu.data         60957                       # number of ReadExReq accesses(hits+misses)
system.l2.ReadExReq_accesses::total             60957                       # number of ReadExReq accesses(hits+misses)
system.l2.ReadExReq_miss_rate::.cpu.data     0.119724                       # miss rate for ReadExReq accesses
system.l2.ReadExReq_miss_rate::total         0.119724                       # miss rate for ReadExReq accesses
system.l2.ReadExReq_avg_miss_latency::.cpu.data 97678.130995                       # average ReadExReq miss latency
system.l2.ReadExReq_avg_miss_latency::total 97678.130995                       # average ReadExReq miss latency
system.l2.ReadExReq_mshr_misses::.cpu.data         7298                       # number of ReadExReq MSHR misses
system.l2.ReadExReq_mshr_misses::total           7298                       # number of ReadExReq MSHR misses
system.l2.ReadExReq_mshr_miss_latency::.cpu.data    566895000                       # number of ReadExReq MSHR miss cycles
system.l2.ReadExReq_mshr_miss_latency::total    566895000                       # number of ReadExReq MSHR miss cycles
system.l2.ReadExReq_mshr_miss_rate::.cpu.data     0.119724                       # mshr miss rate for ReadExReq accesses
system.l2.ReadExReq_mshr_miss_rate::total     0.119724                       # mshr miss rate for ReadExReq accesses
system.l2.ReadExReq_avg_mshr_miss_latency::.cpu.data 77678.130995                       # average ReadExReq mshr miss latency
system.l2.ReadExReq_avg_mshr_miss_latency::total 77678.130995                       # average ReadExReq mshr miss latency
system.l2.ReadCleanReq_hits::.cpu.inst           6391                       # number of ReadCleanReq hits
system.l2.ReadCleanReq_hits::total               6391                       # number of ReadCleanReq hits
system.l2.ReadCleanReq_misses::.cpu.inst         2138                       # number of ReadCleanReq misses
system.l2.ReadCleanReq_misses::total             2138                       # number of ReadCleanReq misses
system.l2.ReadCleanReq_miss_latency::.cpu.inst    205308000                       # number of ReadCleanReq miss cycles
system.l2.ReadCleanReq_miss_latency::total    205308000                       # number of ReadCleanReq miss cycles
system.l2.ReadCleanReq_accesses::.cpu.inst         8529                       # number of ReadCleanReq accesses(hits+misses)
system.l2.ReadCleanReq_accesses::total           8529                       # number of ReadCleanReq accesses(hits+misses)
system.l2.ReadCleanReq_miss_rate::.cpu.inst     0.250674                       # miss rate for ReadCleanReq accesses
system.l2.ReadCleanReq_miss_rate::total      0.250674                       # miss rate for ReadCleanReq accesses
system.l2.ReadCleanReq_avg_miss_latency::.cpu.inst 96028.063611                       # average ReadCleanReq miss latency
system.l2.ReadCleanReq_avg_miss_latency::total 96028.063611                       # average ReadCleanReq miss latency
system.l2.ReadCleanReq_mshr_misses::.cpu.inst         2138                       # number of ReadCleanReq MSHR misses
system.l2.ReadCleanReq_mshr_misses::total         2138                       # number of ReadCleanReq MSHR misses
system.l2.ReadCleanReq_mshr_miss_latency::.cpu.inst    162548000                       # number of ReadCleanReq MSHR miss cycles
system.l2.ReadCleanReq_mshr_miss_latency::total    162548000                       # number of ReadCleanReq MSHR miss cycles
system.l2.ReadCleanReq_mshr_miss_rate::.cpu.inst     0.250674                       # mshr miss rate for ReadCleanReq accesses
system.l2.ReadCleanReq_mshr_miss_rate::total     0.250674                       # mshr miss rate for ReadCleanReq accesses
system.l2.ReadCleanReq_avg_mshr_miss_latency::.cpu.inst 76028.063611                       # average ReadCleanReq mshr miss latency
system.l2.ReadCleanReq_avg_mshr_miss_latency::total 76028.063611                       # average ReadCleanReq mshr miss latency
system.l2.ReadSharedReq_hits::.cpu.data         30559                       # number of ReadSharedReq hits
system.l2.ReadSharedReq_hits::total             30559                       # number of ReadSharedReq hits
system.l2.ReadSharedReq_misses::.cpu.data          935                       # number of ReadSharedReq misses
system.l2.ReadSharedReq_misses::total             935                       # number of ReadSharedReq misses
system.l2.ReadSharedReq_miss_latency::.cpu.data     94270000                       # number of ReadSharedReq miss cycles
system.l2.ReadSharedReq_miss_latency::total     94270000                       # number of ReadSharedReq miss cycles
system.l2.ReadSharedReq_accesses::.cpu.data        31494                       # number of ReadSharedReq accesses(hits+misses)
system.l2.ReadSharedReq_accesses::total         31494                       # number of ReadSharedReq accesses(hits+misses)
system.l2.ReadSharedReq_miss_rate::.cpu.data     0.029688                       # miss rate for ReadSharedReq accesses
system.l2.ReadSharedReq_miss_rate::total     0.029688                       # miss rate for ReadSharedReq accesses
system.l2.ReadSharedReq_avg_miss_latency::.cpu.data 100823.529412                       # average ReadSharedReq miss latency
system.l2.ReadSharedReq_avg_miss_latency::total 100823.529412                       # average ReadSharedReq miss latency
system.l2.ReadSharedReq_mshr_hits::.cpu.data            7                       # number of ReadSharedReq MSHR hits
system.l2.ReadSharedReq_mshr_hits::total            7                       # number of ReadSharedReq MSHR hits
system.l2.ReadSharedReq_mshr_misses::.cpu.data          928                       # number of ReadSharedReq MSHR misses
system.l2.ReadSharedReq_mshr_misses::total          928                       # number of ReadSharedReq MSHR misses
system.l2.ReadSharedReq_mshr_miss_latency::.cpu.data     75152000                       # number of ReadSharedReq MSHR miss cycles
system.l2.ReadSharedReq_mshr_miss_latency::total     75152000                       # number of ReadSharedReq MSHR miss cycles
system.l2.ReadSharedReq_mshr_miss_rate::.cpu.data     0.029466                       # mshr miss rate for ReadSharedReq accesses
system.l2.ReadSharedReq_mshr_miss_rate::total     0.029466                       # mshr miss rate for ReadSharedReq accesses
system.l2.ReadSharedReq_avg_mshr_miss_latency::.cpu.data 80982.758621                       # average ReadSharedReq mshr miss latency
system.l2.ReadSharedReq_avg_mshr_miss_latency::total 80982.758621                       # average ReadSharedReq mshr miss latency
system.l2.tags.pwrStateResidencyTicks::UNDEFINED 119422580000                       # Cumulative time (in ticks) in various power states
system.l2.tags.tagsinuse                  9943.145213                       # Cycle average of tags in use
system.l2.tags.total_refs                      195498                       # Total number of references to valid blocks.
system.l2.tags.sampled_refs                     10364                       # Sample count of references to valid blocks.
system.l2.tags.avg_refs                     18.863180                       # Average number of references to valid blocks.
system.l2.tags.warmup_cycle                     87000                       # Cycle when the warmup percentage was hit.
system.l2.tags.occ_blocks::.cpu.inst      2122.547670                       # Average occupied blocks per requestor
system.l2.tags.occ_blocks::.cpu.data      7820.597543                       # Average occupied blocks per requestor
system.l2.tags.occ_percent::.cpu.inst        0.032388                       # Average percentage of cache occupancy
system.l2.tags.occ_percent::.cpu.data        0.119333                       # Average percentage of cache occupancy
system.l2.tags.occ_percent::total            0.151720                       # Average percentage of cache occupancy
system.l2.tags.occ_task_id_blocks::1024         10364                       # Occupied blocks per task id
system.l2.tags.age_task_id_blocks_1024::3            2                       # Occupied blocks per task id
system.l2.tags.age_task_id_blocks_1024::4        10362                       # Occupied blocks per task id
system.l2.tags.occ_task_id_percent::1024     0.158142                       # Percentage of cache occupancy per task id
system.l2.tags.tag_accesses                    401374                       # Number of tag accesses
system.l2.tags.data_accesses                   401374                       # Number of data accesses
system.cpu_voltage_domain.voltage                   1                       # Voltage in Volts
system.mem_ctrls.pwrStateResidencyTicks::UNDEFINED 119422580000                       # Cumulative time (in ticks) in various power states
system.mem_ctrls.bytes_read::.cpu.inst          68416                       # Number of bytes read from this memory
system.mem_ctrls.bytes_read::.cpu.data         263232                       # Number of bytes read from this memory
system.mem_ctrls.bytes_read::total             331648                       # Number of bytes read from this memory
system.mem_ctrls.bytes_inst_read::.cpu.inst        68416                       # Number of instructions bytes read from this memory
system.mem_ctrls.bytes_inst_read::total         68416                       # Number of instructions bytes read from this memory
system.mem_ctrls.num_reads::.cpu.inst            2138                       # Number of read requests responded to by this memory
system.mem_ctrls.num_reads::.cpu.data            8226                       # Number of read requests responded to by this memory
system.mem_ctrls.num_reads::total               10364                       # Number of read requests responded to by this memory
system.mem_ctrls.bw_read::.cpu.inst            572890                       # Total read bandwidth from this memory (bytes/s)
system.mem_ctrls.bw_read::.cpu.data           2204206                       # Total read bandwidth from this memory (bytes/s)
system.mem_ctrls.bw_read::total               2777096                       # Total read bandwidth from this memory (bytes/s)
system.mem_ctrls.bw_inst_read::.cpu.inst       572890                       # Instruction read bandwidth from this memory (bytes/s)
system.mem_ctrls.bw_inst_read::total           572890                       # Instruction read bandwidth from this memory (bytes/s)
system.mem_ctrls.bw_total::.cpu.inst           572890                       # Total bandwidth to/from this memory (bytes/s)
system.mem_ctrls.bw_total::.cpu.data          2204206                       # Total bandwidth to/from this memory (bytes/s)
system.mem_ctrls.bw_total::total              2777096                       # Total bandwidth to/from this memory (bytes/s)
system.mem_ctrls.avgPriority_.cpu.inst::samples      2138.00                       # Average QoS priority value for accepted requests
system.mem_ctrls.avgPriority_.cpu.data::samples      8226.00                       # Average QoS priority value for accepted requests
system.mem_ctrls.priorityMinLatency      0.000000018750                       # per QoS priority minimum request to response latency (s)
system.mem_ctrls.priorityMaxLatency      0.000000576500                       # per QoS priority maximum request to response latency (s)
system.mem_ctrls.numReadWriteTurnArounds            0                       # Number of turnarounds from READ to WRITE
system.mem_ctrls.numWriteReadTurnArounds            0                       # Number of turnarounds from WRITE to READ
system.mem_ctrls.numStayReadState               51391                       # Number of times bus staying in READ state
system.mem_ctrls.numStayWriteState                  0                       # Number of times bus staying in WRITE state
system.mem_ctrls.readReqs                       10364                       # Number of read requests accepted
system.mem_ctrls.writeReqs                          0                       # Number of write requests accepted
system.mem_ctrls.readBursts                     10364                       # Number of DRAM read bursts, including those serviced by the write queue
system.mem_ctrls.writeBursts                        0                       # Number of DRAM write bursts, including those merged in the write queue
system.mem_ctrls.servicedByWrQ                      0                       # Number of DRAM read bursts serviced by the write queue
system.mem_ctrls.mergedWrBursts                     0                       # Number of DRAM write bursts merged with an existing one
system.mem_ctrls.neitherReadNorWriteReqs            0                       # Number of requests that are neither read nor write
system.mem_ctrls.perBankRdBursts::0               460                       # Per bank write bursts
system.mem_ctrls.perBankRdBursts::1               553                       # Per bank write bursts
system.mem_ctrls.perBankRdBursts::2               340                       # Per bank write bursts
system.mem_ctrls.perBankRdBursts::3               678                       # Per bank write bursts
system.mem_ctrls.perBankRdBursts::4               767                       # Per bank write bursts
system.mem_ctrls.perBankRdBursts::5               732                       # Per bank write bursts
system.mem_ctrls.perBankRdBursts::6               715                       # Per bank write bursts
system.mem_ctrls.perBankRdBursts::7               764                       # Per bank write bursts
system.mem_ctrls.perBankRdBursts::8               676                       # Per bank write bursts
system.mem_ctrls.perBankRdBursts::9               696                       # Per bank write bursts
system.mem_ctrls.perBankRdBursts::10              765                       # Per bank write bursts
system.mem_ctrls.perBankRdBursts::11              557                       # Per bank write bursts
system.mem_ctrls.perBankRdBursts::12              617                       # Per bank write bursts
system.mem_ctrls.perBankRdBursts::13              655                       # Per bank write bursts
system.mem_ctrls.perBankRdBursts::14              747                       # Per bank write bursts
system.mem_ctrls.perBankRdBursts::15              642                       # Per bank write bursts
system.mem_ctrls.perBankWrBursts::0                 0                       # Per bank write bursts
system.mem_ctrls.perBankWrBursts::1                 0                       # Per bank write bursts
system.mem_ctrls.perBankWrBursts::2                 0                       # Per bank write bursts
system.mem_ctrls.perBankWrBursts::3                 0                       # Per bank write bursts
system.mem_ctrls.perBankWrBursts::4                 0                       # Per bank write bursts
system.mem_ctrls.perBankWrBursts::5                 0                       # Per bank write bursts
system.mem_ctrls.perBankWrBursts::6                 0                       # Per bank write bursts
system.mem_ctrls.perBankWrBursts::7                 0                       # Per bank write bursts
system.mem_ctrls.perBankWrBursts::8                 0                       # Per bank write bursts
system.mem_ctrls.perBankWrBursts::9                 0                       # Per bank write bursts
system.mem_ctrls.perBankWrBursts::10                0                       # Per bank write bursts
system.mem_ctrls.perBankWrBursts::11                0                       # Per bank write bursts
system.mem_ctrls.perBankWrBursts::12                0                       # Per bank write bursts
system.mem_ctrls.perBankWrBursts::13                0                       # Per bank write bursts
system.mem_ctrls.perBankWrBursts::14                0                       # Per bank write bursts
system.mem_ctrls.perBankWrBursts::15                0                       # Per bank write bursts
system.mem_ctrls.avgRdQLen                       1.00                       # Average read queue length when enqueuing
system.mem_ctrls.avgWrQLen                       0.00                       # Average write queue length when enqueuing
system.mem_ctrls.totQLat                     78500750                       # Total ticks spent queuing
system.mem_ctrls.totBusLat                   51820000                       # Total ticks spent in databus transfers
system.mem_ctrls.totMemAccLat               272825750                       # Total ticks spent from burst creation until serviced by the DRAM
system.mem_ctrls.avgQLat                      7574.37                       # Average queueing delay per DRAM burst
system.mem_ctrls.avgBusLat                    5000.00                       # Average bus latency per DRAM burst
system.mem_ctrls.avgMemAccLat                26324.37                       # Average memory access latency per DRAM burst
system.mem_ctrls.numRdRetry                         0                       # Number of times read queue was full causing retry
system.mem_ctrls.numWrRetry                         0                       # Number of times write queue was full causing retry
system.mem_ctrls.readRowHits                     8064                       # Number of row buffer hits during reads
system.mem_ctrls.writeRowHits                       0                       # Number of row buffer hits during writes
system.mem_ctrls.readRowHitRate                 77.81                       # Row buffer hit rate for reads
system.mem_ctrls.writeRowHitRate                  nan                       # Row buffer hit rate for writes
system.mem_ctrls.readPktSize::0                     0                       # Read request sizes (log2)
system.mem_ctrls.readPktSize::1                     0                       # Read request sizes (log2)
system.mem_ctrls.readPktSize::2                     0                       # Read request sizes (log2)
system.mem_ctrls.readPktSize::3                     0                       # Read request sizes (log2)
system.mem_ctrls.readPktSize::4                     0                       # Read request sizes (log2)
system.mem_ctrls.readPktSize::5                 10364                       # Read request sizes (log2)
system.mem_ctrls.readPktSize::6                     0                       # Read request sizes (log2)
system.mem_ctrls.writePktSize::0                    0                       # Write request sizes (log2)
system.mem_ctrls.writePktSize::1                    0                       # Write request sizes (log2)
system.mem_ctrls.writePktSize::2                    0                       # Write request sizes (log2)
system.mem_ctrls.writePktSize::3                    0                       # Write request sizes (log2)
system.mem_ctrls.writePktSize::4                    0                       # Write request sizes (log2)
system.mem_ctrls.writePktSize::5                    0                       # Write request sizes (log2)
system.mem_ctrls.writePktSize::6                    0                       # Write request sizes (log2)
system.mem_ctrls.rdQLenPdf::0                    9834                       # What read queue length does an incoming req see
system.mem_ctrls.rdQLenPdf::1                     496                       # What read queue length does an incoming req see
system.mem_ctrls.rdQLenPdf::2                      33                       # What read queue length does an incoming req see
system.mem_ctrls.rdQLenPdf::3                       1                       # What read queue length does an incoming req see
system.mem_ctrls.rdQLenPdf::4                       0                       # What read queue length does an incoming req see
system.mem_ctrls.rdQLenPdf::5                       0                       # What read queue length does an incoming req see
system.mem_ctrls.rdQLenPdf::6                       0                       # What read queue length does an incoming req see
system.mem_ctrls.rdQLenPdf::7                       0                       # What read queue length does an incoming req see
system.mem_ctrls.rdQLenPdf::8                       0                       # What read queue length does an incoming req see
system.mem_ctrls.rdQLenPdf::9                       0                       # What read queue length does an incoming req see
system.mem_ctrls.rdQLenPdf::10                      0                       # What read queue length does an incoming req see
system.mem_ctrls.rdQLenPdf::11                      0                       # What read queue length does an incoming req see
system.mem_ctrls.rdQLenPdf::12                      0                       # What read queue length does an incoming req see
system.mem_ctrls.rdQLenPdf::13                      0                       # What read queue length does an incoming req see
system.mem_ctrls.rdQLenPdf::14                      0                       # What read queue length does an incoming req see
system.mem_ctrls.rdQLenPdf::15                      0                       # What read queue length does an incoming req see
system.mem_ctrls.rdQLenPdf::16                      0                       # What read queue length does an incoming req see
system.mem_ctrls.rdQLenPdf::17                      0                       # What read queue length does an incoming req see
system.mem_ctrls.rdQLenPdf::18                      0                       # What read queue length does an incoming req see
system.mem_ctrls.rdQLenPdf::19                      0                       # What read queue length does an incoming req see
system.mem_ctrls.rdQLenPdf::20                      0                       # What read queue length does an incoming req see
system.mem_ctrls.rdQLenPdf::21                      0                       # What read queue length does an incoming req see
system.mem_ctrls.rdQLenPdf::22                      0                       # What read queue length does an incoming req see
system.mem_ctrls.rdQLenPdf::23                      0                       # What read queue length does an incoming req see
system.mem_ctrls.rdQLenPdf::24                      0                       # What read queue length does an incoming req see
system.mem_ctrls.rdQLenPdf::25                      0                       # What read queue length does an incoming req see
system.mem_ctrls.rdQLenPdf::26                      0                       # What read queue length does an incoming req see
system.mem_ctrls.rdQLenPdf::27                      0                       # What read queue length does an incoming req see
system.mem_ctrls.rdQLenPdf::28                      0                       # What read queue length does an incoming req see
system.mem_ctrls.rdQLenPdf::29                      0                       # What read queue length does an incoming req see
system.mem_ctrls.rdQLenPdf::30                      0                       # What read queue length does an incoming req see
system.mem_ctrls.rdQLenPdf::31                      0                       # What read queue length does an incoming req see
system.mem_ctrls.wrQLenPdf::0                       0                       # What write queue length does an incoming req see
system.mem_ctrls.wrQLenPdf::1                       0                       # What write queue length does an incoming req see
system.mem_ctrls.wrQLenPdf::2                       0                       # What write queue length does an incoming req see
system.mem_ctrls.wrQLenPdf::3                       0                       # What write queue length does an incoming req see
system.mem_ctrls.wrQLenPdf::4                       0                       # What write queue length does an incoming req see
system.mem_ctrls.wrQLenPdf::5                       0                       # What write queue length does an incoming req see
system.mem_ctrls.wrQLenPdf::6                       0                       # What write queue length does an incoming req see
system.mem_ctrls.wrQLenPdf::7                       0                       # What write queue length does an incoming req see
system.mem_ctrls.wrQLenPdf::8                       0                       # What write queue length does an incoming req see
system.mem_ctrls.wrQLenPdf::9                       0                       # What write queue length does an incoming req see
system.mem_ctrls.wrQLenPdf::10                      0                       # What write queue length does an incoming req see
system.mem_ctrls.wrQLenPdf::11                      0                       # What write queue length does an incoming req see
system.mem_ctrls.wrQLenPdf::12                      0                       # What write queue length does an incoming req see
system.mem_ctrls.wrQLenPdf::13                      0                       # What write queue length does an incoming req see
system.mem_ctrls.wrQLenPdf::14                      0                       # What write queue length does an incoming req see
system.mem_ctrls.wrQLenPdf::15                      0                       # What write queue length does an incoming req see
system.mem_ctrls.wrQLenPdf::16                      0                       # What write queue length does an incoming req see
system.mem_ctrls.wrQLenPdf::17                      0                       # What write queue length does an incoming req see
system.mem_ctrls.wrQLenPdf::18                      0                       # What write queue length does an incoming req see
system.mem_ctrls.wrQLenPdf::19                      0                       # What write queue length does an incoming req see
system.mem_ctrls.wrQLenPdf::20                      0                       # What write queue length does an incoming req see
system.mem_ctrls.wrQLenPdf::21                      0                       # What write queue length does an incoming req see
system.mem_ctrls.wrQLenPdf::22                      0                       # What write queue length does an incoming req see
system.mem_ctrls.wrQLenPdf::23                      0                       # What write queue length does an incoming req see
system.mem_ctrls.wrQLenPdf::24                      0                       # What write queue length does an incoming req see
system.mem_ctrls.wrQLenPdf::25                      0                       # What write queue length does an incoming req see
system.mem_ctrls.wrQLenPdf::26                      0                       # What write queue length does an incoming req see
system.mem_ctrls.wrQLenPdf::27                      0                       # What write queue length does an incoming req see
system.mem_ctrls.wrQLenPdf::28                      0                       # What write queue length does an incoming req see
system.mem_ctrls.wrQLenPdf::29                      0                       # What write queue length does an incoming req see
system.mem_ctrls.wrQLenPdf::30                      0                       # What write queue length does an incoming req see
system.mem_ctrls.wrQLenPdf::31                      0                       # What write queue length does an incoming req see
system.mem_ctrls.wrQLenPdf::32                      0                       # What write queue length does an incoming req see
system.mem_ctrls.wrQLenPdf::33                      0                       # What write queue length does an incoming req see
system.mem_ctrls.wrQLenPdf::34                      0                       # What write queue length does an incoming req see
system.mem_ctrls.wrQLenPdf::35                      0                       # What write queue length does an incoming req see
system.mem_ctrls.wrQLenPdf::36                      0                       # What write queue length does an incoming req see
system.mem_ctrls.wrQLenPdf::37                      0                       # What write queue length does an incoming req see
system.mem_ctrls.wrQLenPdf::38                      0                       # What write queue length does an incoming req see
system.mem_ctrls.wrQLenPdf::39                      0                       # What write queue length does an incoming req see
system.mem_ctrls.wrQLenPdf::40                      0                       # What write queue length does an incoming req see
system.mem_ctrls.wrQLenPdf::41                      0                       # What write queue length does an incoming req see
system.mem_ctrls.wrQLenPdf::42                      0                       # What write queue length does an incoming req see
system.mem_ctrls.wrQLenPdf::43                      0                       # What write queue length does an incoming req see
system.mem_ctrls.wrQLenPdf::44                      0                       # What write queue length does an incoming req see
system.mem_ctrls.wrQLenPdf::45                      0                       # What write queue length does an incoming req see
system.mem_ctrls.wrQLenPdf::46                      0                       # What write queue length does an incoming req see
system.mem_ctrls.wrQLenPdf::47                      0                       # What write queue length does an incoming req see
system.mem_ctrls.wrQLenPdf::48                      0                       # What write queue length does an incoming req see
system.mem_ctrls.wrQLenPdf::49                      0                       # What write queue length does an incoming req see
system.mem_ctrls.wrQLenPdf::50                      0                       # What write queue length does an incoming req see
system.mem_ctrls.wrQLenPdf::51                      0                       # What write queue length does an incoming req see
system.mem_ctrls.wrQLenPdf::52                      0                       # What write queue length does an incoming req see
system.mem_ctrls.wrQLenPdf::53                      0                       # What write queue length does an incoming req see
system.mem_ctrls.wrQLenPdf::54                      0                       # What write queue length does an incoming req see
system.mem_ctrls.wrQLenPdf::55                      0                       # What write queue length does an incoming req see
system.mem_ctrls.wrQLenPdf::56                      0                       # What write queue length does an incoming req see
system.mem_ctrls.wrQLenPdf::57                      0                       # What write queue length does an incoming req see
system.mem_ctrls.wrQLenPdf::58                      0                       # What write queue length does an incoming req see
system.mem_ctrls.wrQLenPdf::59                      0                       # What write queue length does an incoming req see
system.mem_ctrls.wrQLenPdf::60                      0                       # What write queue length does an incoming req see
system.mem_ctrls.wrQLenPdf::61                      0                       # What write queue length does an incoming req see
system.mem_ctrls.wrQLenPdf::62                      0                       # What write queue length does an incoming req see
system.mem_ctrls.wrQLenPdf::63                      0                       # What write queue length does an incoming req see
system.mem_ctrls.bytesPerActivate::samples         2300                       # Bytes accessed per row activation
system.mem_ctrls.bytesPerActivate::mean    288.389565                       # Bytes accessed per row activation
system.mem_ctrls.bytesPerActivate::gmean   194.409809                       # Bytes accessed per row activation
system.mem_ctrls.bytesPerActivate::stdev   294.998744                       # Bytes accessed per row activation
system.mem_ctrls.bytesPerActivate::0-127          544     23.65%     23.65% # Bytes accessed per row activation
system.mem_ctrls.bytesPerActivate::128-255         1043     45.35%     69.00% # Bytes accessed per row activation
system.mem_ctrls.bytesPerActivate::256-383          263     11.43%     80.43% # Bytes accessed per row activation
system.mem_ctrls.bytesPerActivate::384-511           89      3.87%     84.30% # Bytes accessed per row activation
system.mem_ctrls.bytesPerActivate::512-639           42      1.83%     86.13% # Bytes accessed per row activation
system.mem_ctrls.bytesPerActivate::640-767           25      1.09%     87.22% # Bytes accessed per row activation
system.mem_ctrls.bytesPerActivate::768-895           23      1.00%     88.22% # Bytes accessed per row activation
system.mem_ctrls.bytesPerActivate::896-1023           16      0.70%     88.91% # Bytes accessed per row activation
system.mem_ctrls.bytesPerActivate::1024-1151          255     11.09%    100.00% # Bytes accessed per row activation
system.mem_ctrls.bytesPerActivate::total         2300                       # Bytes accessed per row activation
system.mem_ctrls.bytesReadDRAM                 663296                       # Total number of bytes read from DRAM
system.mem_ctrls.bytesReadWrQ                       0                       # Total number of bytes read from write queue
system.mem_ctrls.bytesWritten                       0                       # Total number of bytes written to DRAM
system.mem_ctrls.bytesReadSys                  331648                       # Total read bytes from the system interface side
system.mem_ctrls.bytesWrittenSys                    0                       # Total written bytes from the system interface side
system.mem_ctrls.avgRdBW                         5.55                       # Average DRAM read bandwidth in MiByte/s
system.mem_ctrls.avgWrBW                         0.00                       # Average achieved write bandwidth in MiByte/s
system.mem_ctrls.avgRdBWSys                      2.78                       # Average system read bandwidth in MiByte/s
system.mem_ctrls.avgWrBWSys                      0.00                       # Average system write bandwidth in MiByte/s
system.mem_ctrls.peakBW                      12800.00                       # Theoretical peak bandwidth in MiByte/s
system.mem_ctrls.busUtil                         0.04                       # Data bus utilization in percentage
system.mem_ctrls.busUtilRead                     0.04                       # Data bus utilization in percentage for reads
system.mem_ctrls.busUtilWrite                    0.00                       # Data bus utilization in percentage for writes
system.mem_ctrls.totGap                  112762138000                       # Total gap between requests
system.mem_ctrls.avgGap                   10880175.41                       # Average gap between requests
system.mem_ctrls.masterReadBytes::.cpu.inst        68416                       # Per-master bytes read from memory
system.mem_ctrls.masterReadBytes::.cpu.data       263232                       # Per-master bytes read from memory
system.mem_ctrls.masterReadRate::.cpu.inst 572889.984456875711                       # Per-master bytes read from memory rate (Bytes/sec)
system.mem_ctrls.masterReadRate::.cpu.data 2204206.273219017778                       # Per-master bytes read from memory rate (Bytes/sec)
system.mem_ctrls.masterReadAccesses::.cpu.inst         2138                       # Per-master read serviced memory accesses
system.mem_ctrls.masterReadAccesses::.cpu.data         8226                       # Per-master read serviced memory accesses
system.mem_ctrls.masterReadTotalLat::.cpu.inst     52857500                       # Per-master read total memory access latency
system.mem_ctrls.masterReadTotalLat::.cpu.data    219968250                       # Per-master read total memory access latency
system.mem_ctrls.masterReadAvgLat::.cpu.inst     24722.87                       # Per-master read average memory access latency
system.mem_ctrls.masterReadAvgLat::.cpu.data     26740.61                       # Per-master read average memory access latency
system.mem_ctrls.pageHitRate                    77.81                       # Row buffer hit rate, read and write combined
system.mem_ctrls.rank1.actEnergy              8046780                       # Energy for activate commands per rank (pJ)
system.mem_ctrls.rank1.preEnergy              4276965                       # Energy for precharge commands per rank (pJ)
system.mem_ctrls.rank1.readEnergy            38234700                       # Energy for read commands per rank (pJ)
[...]
system.cpu.icache.tags.age_task_id_blocks_1024::2            1                       # Occupied blocks per task id
system.cpu.icache.tags.age_task_id_blocks_1024::3            3                       # Occupied blocks per task id
system.cpu.icache.tags.age_task_id_blocks_1024::4         1457                       # Occupied blocks per task id
system.cpu.icache.tags.occ_task_id_percent::1024     0.713379                       # Percentage of cache occupancy per task id
system.cpu.icache.tags.tag_accesses          20295936                       # Number of tag accesses
system.cpu.icache.tags.data_accesses         20295936                       # Number of data accesses
system.cpu.dtb.walker.pwrStateResidencyTicks::UNDEFINED 119422580000                       # Cumulative time (in ticks) in various power states
system.cpu.dtb.stage2_mmu.stage2_tlb.walker.pwrStateResidencyTicks::UNDEFINED 119422580000                       # Cumulative time (in ticks) in various power states
system.cpu.dcache.pwrStateResidencyTicks::UNDEFINED 119422580000                       # Cumulative time (in ticks) in various power states
system.cpu.dcache.demand_hits::.cpu.data     43818970                       # number of demand (read+write) hits
system.cpu.dcache.demand_hits::total         43818970                       # number of demand (read+write) hits
system.cpu.dcache.overall_hits::.cpu.data     43827549                       # number of overall hits
system.cpu.dcache.overall_hits::total        43827549                       # number of overall hits
system.cpu.dcache.demand_misses::.cpu.data        99097                       # number of demand (read+write) misses
system.cpu.dcache.demand_misses::total          99097                       # number of demand (read+write) misses
system.cpu.dcache.overall_misses::.cpu.data        99230                       # number of overall misses
system.cpu.dcache.overall_misses::total         99230                       # number of overall misses
system.cpu.dcache.demand_miss_latency::.cpu.data   3523102000                       # number of demand (read+write) miss cycles
system.cpu.dcache.demand_miss_latency::total   3523102000                       # number of demand (read+write) miss cycles
system.cpu.dcache.overall_miss_latency::.cpu.data   3523102000                       # number of overall miss cycles
system.cpu.dcache.overall_miss_latency::total   3523102000                       # number of overall miss cycles
system.cpu.dcache.demand_accesses::.cpu.data     43918067                       # number of demand (read+write) accesses
system.cpu.dcache.demand_accesses::total     43918067                       # number of demand (read+write) accesses
system.cpu.dcache.overall_accesses::.cpu.data     43926779                       # number of overall (read+write) accesses
system.cpu.dcache.overall_accesses::total     43926779                       # number of overall (read+write) accesses
system.cpu.dcache.demand_miss_rate::.cpu.data     0.002256                       # miss rate for demand accesses
system.cpu.dcache.demand_miss_rate::total     0.002256                       # miss rate for demand accesses
system.cpu.dcache.overall_miss_rate::.cpu.data     0.002259                       # miss rate for overall accesses
system.cpu.dcache.overall_miss_rate::total     0.002259                       # miss rate for overall accesses
system.cpu.dcache.demand_avg_miss_latency::.cpu.data 35552.055057                       # average overall miss latency
system.cpu.dcache.demand_avg_miss_latency::total 35552.055057                       # average overall miss latency
system.cpu.dcache.overall_avg_miss_latency::.cpu.data 35504.403910                       # average overall miss latency
system.cpu.dcache.overall_avg_miss_latency::total 35504.403910                       # average overall miss latency
system.cpu.dcache.blocked_cycles::no_mshrs          521                       # number of cycles access was blocked
system.cpu.dcache.blocked_cycles::no_targets            0                       # number of cycles access was blocked
system.cpu.dcache.blocked::no_mshrs                 5                       # number of cycles access was blocked
system.cpu.dcache.blocked::no_targets               0                       # number of cycles access was blocked
system.cpu.dcache.avg_blocked_cycles::no_mshrs   104.200000                       # average number of cycles each access was blocked
system.cpu.dcache.avg_blocked_cycles::no_targets          nan                       # average number of cycles each access was blocked
system.cpu.dcache.writebacks::.writebacks        86845                       # number of writebacks
system.cpu.dcache.writebacks::total             86845                       # number of writebacks
system.cpu.dcache.demand_mshr_hits::.cpu.data         6779                       # number of demand (read+write) MSHR hits
system.cpu.dcache.demand_mshr_hits::total         6779                       # number of demand (read+write) MSHR hits
system.cpu.dcache.overall_mshr_hits::.cpu.data         6779                       # number of overall MSHR hits
system.cpu.dcache.overall_mshr_hits::total         6779                       # number of overall MSHR hits
system.cpu.dcache.demand_mshr_misses::.cpu.data        92318                       # number of demand (read+write) MSHR misses
system.cpu.dcache.demand_mshr_misses::total        92318                       # number of demand (read+write) MSHR misses
system.cpu.dcache.overall_mshr_misses::.cpu.data        92450                       # number of overall MSHR misses
system.cpu.dcache.overall_mshr_misses::total        92450                       # number of overall MSHR misses
system.cpu.dcache.demand_mshr_miss_latency::.cpu.data   2860833000                       # number of demand (read+write) MSHR miss cycles
system.cpu.dcache.demand_mshr_miss_latency::total   2860833000                       # number of demand (read+write) MSHR miss cycles
system.cpu.dcache.overall_mshr_miss_latency::.cpu.data   2874842000                       # number of overall MSHR miss cycles
system.cpu.dcache.overall_mshr_miss_latency::total   2874842000                       # number of overall MSHR miss cycles
system.cpu.dcache.demand_mshr_miss_rate::.cpu.data     0.002102                       # mshr miss rate for demand accesses
system.cpu.dcache.demand_mshr_miss_rate::total     0.002102                       # mshr miss rate for demand accesses
system.cpu.dcache.overall_mshr_miss_rate::.cpu.data     0.002105                       # mshr miss rate for overall accesses
system.cpu.dcache.overall_mshr_miss_rate::total     0.002105                       # mshr miss rate for overall accesses
system.cpu.dcache.demand_avg_mshr_miss_latency::.cpu.data 30988.897073                       # average overall mshr miss latency
system.cpu.dcache.demand_avg_mshr_miss_latency::total 30988.897073                       # average overall mshr miss latency
system.cpu.dcache.overall_avg_mshr_miss_latency::.cpu.data 31096.181720                       # average overall mshr miss latency
system.cpu.dcache.overall_avg_mshr_miss_latency::total 31096.181720                       # average overall mshr miss latency
system.cpu.dcache.replacements                  88355                       # number of replacements
system.cpu.dcache.ReadReq_hits::.cpu.data     37565557                       # number of ReadReq hits
system.cpu.dcache.ReadReq_hits::total        37565557                       # number of ReadReq hits
system.cpu.dcache.ReadReq_misses::.cpu.data        31590                       # number of ReadReq misses
system.cpu.dcache.ReadReq_misses::total         31590                       # number of ReadReq misses
system.cpu.dcache.ReadReq_miss_latency::.cpu.data    911801000                       # number of ReadReq miss cycles
system.cpu.dcache.ReadReq_miss_latency::total    911801000                       # number of ReadReq miss cycles
system.cpu.dcache.ReadReq_accesses::.cpu.data     37597147                       # number of ReadReq accesses(hits+misses)
system.cpu.dcache.ReadReq_accesses::total     37597147                       # number of ReadReq accesses(hits+misses)
system.cpu.dcache.ReadReq_miss_rate::.cpu.data     0.000840                       # miss rate for ReadReq accesses
system.cpu.dcache.ReadReq_miss_rate::total     0.000840                       # miss rate for ReadReq accesses
system.cpu.dcache.ReadReq_avg_miss_latency::.cpu.data 28863.596075                       # average ReadReq miss latency
system.cpu.dcache.ReadReq_avg_miss_latency::total 28863.596075                       # average ReadReq miss latency
system.cpu.dcache.ReadReq_mshr_hits::.cpu.data          229                       # number of ReadReq MSHR hits
system.cpu.dcache.ReadReq_mshr_hits::total          229                       # number of ReadReq MSHR hits
system.cpu.dcache.ReadReq_mshr_misses::.cpu.data        31361                       # number of ReadReq MSHR misses
system.cpu.dcache.ReadReq_mshr_misses::total        31361                       # number of ReadReq MSHR misses
system.cpu.dcache.ReadReq_mshr_miss_latency::.cpu.data    834532000                       # number of ReadReq MSHR miss cycles
system.cpu.dcache.ReadReq_mshr_miss_latency::total    834532000                       # number of ReadReq MSHR miss cycles
system.cpu.dcache.ReadReq_mshr_miss_rate::.cpu.data     0.000834                       # mshr miss rate for ReadReq accesses
system.cpu.dcache.ReadReq_mshr_miss_rate::total     0.000834                       # mshr miss rate for ReadReq accesses
system.cpu.dcache.ReadReq_avg_mshr_miss_latency::.cpu.data 26610.503492                       # average ReadReq mshr miss latency
system.cpu.dcache.ReadReq_avg_mshr_miss_latency::total 26610.503492                       # average ReadReq mshr miss latency
system.cpu.dcache.WriteReq_hits::.cpu.data      6253413                       # number of WriteReq hits
system.cpu.dcache.WriteReq_hits::total        6253413                       # number of WriteReq hits
system.cpu.dcache.WriteReq_misses::.cpu.data        67507                       # number of WriteReq misses
system.cpu.dcache.WriteReq_misses::total        67507                       # number of WriteReq misses
system.cpu.dcache.WriteReq_miss_latency::.cpu.data   2611301000                       # number of WriteReq miss cycles
system.cpu.dcache.WriteReq_miss_latency::total   2611301000                       # number of WriteReq miss cycles
system.cpu.dcache.WriteReq_accesses::.cpu.data      6320920                       # number of WriteReq accesses(hits+misses)
system.cpu.dcache.WriteReq_accesses::total      6320920                       # number of WriteReq accesses(hits+misses)
system.cpu.dcache.WriteReq_miss_rate::.cpu.data     0.010680                       # miss rate for WriteReq accesses
system.cpu.dcache.WriteReq_miss_rate::total     0.010680                       # miss rate for WriteReq accesses
system.cpu.dcache.WriteReq_avg_miss_latency::.cpu.data 38681.929281                       # average WriteReq miss latency
system.cpu.dcache.WriteReq_avg_miss_latency::total 38681.929281                       # average WriteReq miss latency
system.cpu.dcache.WriteReq_mshr_hits::.cpu.data         6550                       # number of WriteReq MSHR hits
system.cpu.dcache.WriteReq_mshr_hits::total         6550                       # number of WriteReq MSHR hits
system.cpu.dcache.WriteReq_mshr_misses::.cpu.data        60957                       # number of WriteReq MSHR misses
system.cpu.dcache.WriteReq_mshr_misses::total        60957                       # number of WriteReq MSHR misses
system.cpu.dcache.WriteReq_mshr_miss_latency::.cpu.data   2026301000                       # number of WriteReq MSHR miss cycles
system.cpu.dcache.WriteReq_mshr_miss_latency::total   2026301000                       # number of WriteReq MSHR miss cycles
system.cpu.dcache.WriteReq_mshr_miss_rate::.cpu.data     0.009644                       # mshr miss rate for WriteReq accesses
system.cpu.dcache.WriteReq_mshr_miss_rate::total     0.009644                       # mshr miss rate for WriteReq accesses
system.cpu.dcache.WriteReq_avg_mshr_miss_latency::.cpu.data 33241.481700                       # average WriteReq mshr miss latency
system.cpu.dcache.WriteReq_avg_mshr_miss_latency::total 33241.481700                       # average WriteReq mshr miss latency
system.cpu.dcache.SoftPFReq_hits::.cpu.data         8579                       # number of SoftPFReq hits
system.cpu.dcache.SoftPFReq_hits::total          8579                       # number of SoftPFReq hits
system.cpu.dcache.SoftPFReq_misses::.cpu.data          133                       # number of SoftPFReq misses
system.cpu.dcache.SoftPFReq_misses::total          133                       # number of SoftPFReq misses
system.cpu.dcache.SoftPFReq_accesses::.cpu.data         8712                       # number of SoftPFReq accesses(hits+misses)
system.cpu.dcache.SoftPFReq_accesses::total         8712                       # number of SoftPFReq accesses(hits+misses)
system.cpu.dcache.SoftPFReq_miss_rate::.cpu.data     0.015266                       # miss rate for SoftPFReq accesses
system.cpu.dcache.SoftPFReq_miss_rate::total     0.015266                       # miss rate for SoftPFReq accesses
system.cpu.dcache.SoftPFReq_mshr_misses::.cpu.data          132                       # number of SoftPFReq MSHR misses
system.cpu.dcache.SoftPFReq_mshr_misses::total          132                       # number of SoftPFReq MSHR misses
system.cpu.dcache.SoftPFReq_mshr_miss_latency::.cpu.data     14009000                       # number of SoftPFReq MSHR miss cycles
system.cpu.dcache.SoftPFReq_mshr_miss_latency::total     14009000                       # number of SoftPFReq MSHR miss cycles
system.cpu.dcache.SoftPFReq_mshr_miss_rate::.cpu.data     0.015152                       # mshr miss rate for SoftPFReq accesses
system.cpu.dcache.SoftPFReq_mshr_miss_rate::total     0.015152                       # mshr miss rate for SoftPFReq accesses
system.cpu.dcache.SoftPFReq_avg_mshr_miss_latency::.cpu.data 106128.787879                       # average SoftPFReq mshr miss latency
system.cpu.dcache.SoftPFReq_avg_mshr_miss_latency::total 106128.787879                       # average SoftPFReq mshr miss latency
system.cpu.dcache.LoadLockedReq_hits::.cpu.data          165                       # number of LoadLockedReq hits
system.cpu.dcache.LoadLockedReq_hits::total          165                       # number of LoadLockedReq hits
system.cpu.dcache.LoadLockedReq_misses::.cpu.data            1                       # number of LoadLockedReq misses
system.cpu.dcache.LoadLockedReq_misses::total            1                       # number of LoadLockedReq misses
system.cpu.dcache.LoadLockedReq_miss_latency::.cpu.data        95000                       # number of LoadLockedReq miss cycles
system.cpu.dcache.LoadLockedReq_miss_latency::total        95000                       # number of LoadLockedReq miss cycles
system.cpu.dcache.LoadLockedReq_accesses::.cpu.data          166                       # number of LoadLockedReq accesses(hits+misses)
system.cpu.dcache.LoadLockedReq_accesses::total          166                       # number of LoadLockedReq accesses(hits+misses)
system.cpu.dcache.LoadLockedReq_miss_rate::.cpu.data     0.006024                       # miss rate for LoadLockedReq accesses
system.cpu.dcache.LoadLockedReq_miss_rate::total     0.006024                       # miss rate for LoadLockedReq accesses
system.cpu.dcache.LoadLockedReq_avg_miss_latency::.cpu.data        95000                       # average LoadLockedReq miss latency
system.cpu.dcache.LoadLockedReq_avg_miss_latency::total        95000                       # average LoadLockedReq miss latency
system.cpu.dcache.LoadLockedReq_mshr_misses::.cpu.data            1                       # number of LoadLockedReq MSHR misses
system.cpu.dcache.LoadLockedReq_mshr_misses::total            1                       # number of LoadLockedReq MSHR misses
system.cpu.dcache.LoadLockedReq_mshr_miss_latency::.cpu.data        93000                       # number of LoadLockedReq MSHR miss cycles
system.cpu.dcache.LoadLockedReq_mshr_miss_latency::total        93000                       # number of LoadLockedReq MSHR miss cycles
system.cpu.dcache.LoadLockedReq_mshr_miss_rate::.cpu.data     0.006024                       # mshr miss rate for LoadLockedReq accesses
system.cpu.dcache.LoadLockedReq_mshr_miss_rate::total     0.006024                       # mshr miss rate for LoadLockedReq accesses
system.cpu.dcache.LoadLockedReq_avg_mshr_miss_latency::.cpu.data        93000                       # average LoadLockedReq mshr miss latency
system.cpu.dcache.LoadLockedReq_avg_mshr_miss_latency::total        93000                       # average LoadLockedReq mshr miss latency
system.cpu.dcache.StoreCondReq_hits::.cpu.data          166                       # number of StoreCondReq hits
system.cpu.dcache.StoreCondReq_hits::total          166                       # number of StoreCondReq hits
system.cpu.dcache.StoreCondReq_accesses::.cpu.data          166                       # number of StoreCondReq accesses(hits+misses)
system.cpu.dcache.StoreCondReq_accesses::total          166                       # number of StoreCondReq accesses(hits+misses)
system.cpu.dcache.tags.pwrStateResidencyTicks::UNDEFINED 119422580000                       # Cumulative time (in ticks) in various power states
system.cpu.dcache.tags.tagsinuse          4004.669762                       # Cycle average of tags in use
system.cpu.dcache.tags.total_refs            43920331                       # Total number of references to valid blocks.
system.cpu.dcache.tags.sampled_refs             92451                       # Sample count of references to valid blocks.
system.cpu.dcache.tags.avg_refs            475.066046                       # Average number of references to valid blocks.
system.cpu.dcache.tags.warmup_cycle            223000                       # Cycle when the warmup percentage was hit.
system.cpu.dcache.tags.occ_blocks::.cpu.data  4004.669762                       # Average occupied blocks per requestor
system.cpu.dcache.tags.occ_percent::.cpu.data     0.977703                       # Average percentage of cache occupancy
system.cpu.dcache.tags.occ_percent::total     0.977703                       # Average percentage of cache occupancy
system.cpu.dcache.tags.occ_task_id_blocks::1024         4096                       # Occupied blocks per task id
system.cpu.dcache.tags.age_task_id_blocks_1024::0           12                       # Occupied blocks per task id
system.cpu.dcache.tags.age_task_id_blocks_1024::1           79                       # Occupied blocks per task id
system.cpu.dcache.tags.age_task_id_blocks_1024::2          380                       # Occupied blocks per task id
system.cpu.dcache.tags.age_task_id_blocks_1024::3         1233                       # Occupied blocks per task id
system.cpu.dcache.tags.age_task_id_blocks_1024::4         2392                       # Occupied blocks per task id
system.cpu.dcache.tags.occ_task_id_percent::1024            1                       # Percentage of cache occupancy per task id
system.cpu.dcache.tags.tag_accesses          44019562                       # Number of tag accesses
system.cpu.dcache.tags.data_accesses         44019562                       # Number of data accesses
system.cpu.itb.walker.pwrStateResidencyTicks::UNDEFINED 119422580000                       # Cumulative time (in ticks) in various power states
system.cpu.itb.stage2_mmu.stage2_tlb.walker.pwrStateResidencyTicks::UNDEFINED 119422580000                       # Cumulative time (in ticks) in various power states

---------- End Simulation Statistics   ----------
