
---------- Begin Simulation Statistics ----------
final_tick                               156088809000                       # Number of ticks from beginning of simulation (restored from checkpoints and never reset)
host_inst_rate                                 181558                       # Simulator instruction rate (inst/s)
host_mem_usage                                 703416                       # Number of bytes of host memory used
host_op_rate                                   181915                       # Simulator op (including micro ops) rate (op/s)
host_seconds                                   550.79                       # Real time elapsed on the host
host_tick_rate                              283392284                       # Simulator tick rate (ticks/s)
sim_freq                                 1000000000000                       # Frequency of simulated ticks
sim_insts                                   100000001                       # Number of instructions simulated
sim_ops                                     100196363                       # Number of ops (including micro ops) simulated
sim_seconds                                  0.156089                       # Number of seconds simulated
sim_ticks                                156088809000                       # Number of ticks simulated
system.cpu.branchPred.BTBCorrect                    0                       # Number of correct BTB predictions (this stat may not work properly.
system.cpu.branchPred.BTBHitPct             99.693598                       # BTB Hit Percentage
system.cpu.branchPred.BTBHits                 2095376                       # Number of BTB hits
system.cpu.branchPred.BTBLookups              2101816                       # Number of BTB lookups
system.cpu.branchPred.RASInCorrect                  5                       # Number of incorrect RAS predictions.
system.cpu.branchPred.condIncorrect             81341                       # Number of conditional branches incorrect
system.cpu.branchPred.condPredicted           3727555                       # Number of conditional branches predicted
system.cpu.branchPred.indirectHits                291                       # Number of indirect target hits.
system.cpu.branchPred.indirectLookups             809                       # Number of indirect predictor lookups.
system.cpu.branchPred.indirectMisses              518                       # Number of indirect misses.
system.cpu.branchPred.lookups                 4477637                       # Number of BP lookups
system.cpu.branchPred.usedRAS                   65341                       # Number of times the RAS was used to get a target.
system.cpu.branchPredindirectMispredicted          171                       # Number of mispredicted indirect branches.
system.cpu.committedInsts                   100000001                       # Number of instructions committed
system.cpu.committedOps                     100196363                       # Number of ops (including micro ops) committed
system.cpu.cpi                               1.560888                       # CPI: cycles per instruction
system.cpu.discardedOps                        190588                       # Number of ops (including micro ops) which were discarded before commit
system.cpu.dtb.accesses                             0                       # DTB accesses
system.cpu.dtb.align_faults                         0                       # Number of TLB faults due to alignment restrictions
system.cpu.dtb.domain_faults                        0                       # Number of TLB faults due to domain restrictions
system.cpu.dtb.flush_entries                        0                       # Number of entries that have been flushed from TLB
system.cpu.dtb.flush_tlb                            0                       # Number of times complete TLB was flushed
system.cpu.dtb.flush_tlb_asid                       0                       # Number of times TLB was flushed by ASID
system.cpu.dtb.flush_tlb_mva                        0                       # Number of times TLB was flushed by MVA
system.cpu.dtb.flush_tlb_mva_asid                   0                       # Number of times TLB was flushed by MVA & ASID
system.cpu.dtb.hits                                 0                       # DTB hits
system.cpu.dtb.inst_accesses                        0                       # ITB inst accesses
system.cpu.dtb.inst_hits                            0                       # ITB inst hits
system.cpu.dtb.inst_misses                          0                       # ITB inst misses
system.cpu.dtb.misses                               0                       # DTB misses
system.cpu.dtb.perms_faults                         0                       # Number of TLB faults due to permissions restrictions
system.cpu.dtb.prefetch_faults                      0                       # Number of TLB faults due to prefetch
system.cpu.dtb.read_accesses                        0                       # DTB read accesses
system.cpu.dtb.read_hits                            0                       # DTB read hits
system.cpu.dtb.read_misses                          0                       # DTB read misses
system.cpu.dtb.stage2_mmu.stage2_tlb.accesses            0                       # DTB accesses
system.cpu.dtb.stage2_mmu.stage2_tlb.align_faults            0                       # Number of TLB faults due to alignment restrictions
system.cpu.dtb.stage2_mmu.stage2_tlb.domain_faults            0                       # Number of TLB faults due to domain restrictions
system.cpu.dtb.stage2_mmu.stage2_tlb.flush_entries            0                       # Number of entries that have been flushed from TLB
system.cpu.dtb.stage2_mmu.stage2_tlb.flush_tlb            0                       # Number of times complete TLB was flushed
system.cpu.dtb.stage2_mmu.stage2_tlb.flush_tlb_asid            0                       # Number of times TLB was flushed by ASID
system.cpu.dtb.stage2_mmu.stage2_tlb.flush_tlb_mva            0                       # Number of times TLB was flushed by MVA
system.cpu.dtb.stage2_mmu.stage2_tlb.flush_tlb_mva_asid            0                       # Number of times TLB was flushed by MVA & ASID
system.cpu.dtb.stage2_mmu.stage2_tlb.hits            0                       # DTB hits
system.cpu.dtb.stage2_mmu.stage2_tlb.inst_accesses            0                       # ITB inst accesses
system.cpu.dtb.stage2_mmu.stage2_tlb.inst_hits            0                       # ITB inst hits
system.cpu.dtb.stage2_mmu.stage2_tlb.inst_misses            0                       # ITB inst misses
system.cpu.dtb.stage2_mmu.stage2_tlb.misses            0                       # DTB misses
system.cpu.dtb.stage2_mmu.stage2_tlb.perms_faults            0                       # Number of TLB faults due to permissions restrictions
system.cpu.dtb.stage2_mmu.stage2_tlb.prefetch_faults            0                       # Number of TLB faults due to prefetch
system.cpu.dtb.stage2_mmu.stage2_tlb.read_accesses            0                       # DTB read accesses
system.cpu.dtb.stage2_mmu.stage2_tlb.read_hits            0                       # DTB read hits
system.cpu.dtb.stage2_mmu.stage2_tlb.read_misses            0                       # DTB read misses
system.cpu.dtb.stage2_mmu.stage2_tlb.walker.walkRequestOrigin_Requested::Data            0                       # Table walker requests started/completed, data/inst
system.cpu.dtb.stage2_mmu.stage2_tlb.walker.walkRequestOrigin_Requested::Inst            0                       # Table walker requests started/completed, data/inst
system.cpu.dtb.stage2_mmu.stage2_tlb.walker.walkRequestOrigin_Requested::total            0                       # Table walker requests started/completed, data/inst
system.cpu.dtb.stage2_mmu.stage2_tlb.walker.walkRequestOrigin_Completed::Data            0                       # Table walker requests started/completed, data/inst
system.cpu.dtb.stage2_mmu.stage2_tlb.walker.walkRequestOrigin_Completed::Inst            0                       # Table walker requests started/completed, data/inst
system.cpu.dtb.stage2_mmu.stage2_tlb.walker.walkRequestOrigin_Completed::total            0                       # Table walker requests started/completed, data/inst
system.cpu.dtb.stage2_mmu.stage2_tlb.walker.walkRequestOrigin::total            0                       # Table walker requests started/completed, data/inst
system.cpu.dtb.stage2_mmu.stage2_tlb.walker.walks            0                       # Table walker walks requested
system.cpu.dtb.stage2_mmu.stage2_tlb.write_accesses            0                       # DTB write accesses
system.cpu.dtb.stage2_mmu.stage2_tlb.write_hits            0                       # DTB write hits
system.cpu.dtb.stage2_mmu.stage2_tlb.write_misses            0                       # DTB write misses
system.cpu.dtb.walker.walkRequestOrigin_Requested::Data            0                       # Table walker requests started/completed, data/inst
system.cpu.dtb.walker.walkRequestOrigin_Requested::Inst            0                       # Table walker requests started/completed, data/inst
system.cpu.dtb.walker.walkRequestOrigin_Requested::total            0                       # Table walker requests started/completed, data/inst
system.cpu.dtb.walker.walkRequestOrigin_Completed::Data            0                       # Table walker requests started/completed, data/inst
system.cpu.dtb.walker.walkRequestOrigin_Completed::Inst            0                       # Table walker requests started/completed, data/inst
system.cpu.dtb.walker.walkRequestOrigin_Completed::total            0                       # Table walker requests started/completed, data/inst
system.cpu.dtb.walker.walkRequestOrigin::total            0                       # Table walker requests started/completed, data/inst
system.cpu.dtb.walker.walks                         0                       # Table walker walks requested
system.cpu.dtb.write_accesses                       0                       # DTB write accesses
system.cpu.dtb.write_hits                           0                       # DTB write hits
system.cpu.dtb.write_misses                         0                       # DTB write misses
system.cpu.fetch2.amo_instructions                  0                       # Number of memory atomic instructions successfully decoded
system.cpu.fetch2.fp_instructions                   0                       # Number of floating point instructions successfully decoded
system.cpu.fetch2.int_instructions           42610042                       # Number of integer instructions successfully decoded
system.cpu.fetch2.load_instructions          43402179                       # Number of memory load instructions successfully decoded
system.cpu.fetch2.store_instructions         11001328                       # Number of memory store instructions successfully decoded
system.cpu.fetch2.vec_instructions                  0                       # Number of SIMD instructions successfully decoded
system.cpu.idleCycles                        23758890                       # Total number of cycles that the object has spent stopped
system.cpu.ipc                               0.640661                       # IPC: instructions per cycle
system.cpu.itb.accesses                             0                       # DTB accesses
system.cpu.itb.align_faults                         0                       # Number of TLB faults due to alignment restrictions
system.cpu.itb.domain_faults                        0                       # Number of TLB faults due to domain restrictions
system.cpu.itb.flush_entries                        0                       # Number of entries that have been flushed from TLB
system.cpu.itb.flush_tlb                            0                       # Number of times complete TLB was flushed
system.cpu.itb.flush_tlb_asid                       0                       # Number of times TLB was flushed by ASID
system.cpu.itb.flush_tlb_mva                        0                       # Number of times TLB was flushed by MVA
system.cpu.itb.flush_tlb_mva_asid                   0                       # Number of times TLB was flushed by MVA & ASID
system.cpu.itb.hits                                 0                       # DTB hits
system.cpu.itb.inst_accesses                        0                       # ITB inst accesses
system.cpu.itb.inst_hits                            0                       # ITB inst hits
system.cpu.itb.inst_misses                          0                       # ITB inst misses
system.cpu.itb.misses                               0                       # DTB misses
system.cpu.itb.perms_faults                         0                       # Number of TLB faults due to permissions restrictions
system.cpu.itb.prefetch_faults                      0                       # Number of TLB faults due to prefetch
system.cpu.itb.read_accesses                        0                       # DTB read accesses
system.cpu.itb.read_hits                            0                       # DTB read hits
system.cpu.itb.read_misses                          0                       # DTB read misses
system.cpu.itb.stage2_mmu.stage2_tlb.accesses            0                       # DTB accesses
system.cpu.itb.stage2_mmu.stage2_tlb.align_faults            0                       # Number of TLB faults due to alignment restrictions
system.cpu.itb.stage2_mmu.stage2_tlb.domain_faults            0                       # Number of TLB faults due to domain restrictions
system.cpu.itb.stage2_mmu.stage2_tlb.flush_entries            0                       # Number of entries that have been flushed from TLB
system.cpu.itb.stage2_mmu.stage2_tlb.flush_tlb            0                       # Number of times complete TLB was flushed
system.cpu.itb.stage2_mmu.stage2_tlb.flush_tlb_asid            0                       # Number of times TLB was flushed by ASID
system.cpu.itb.stage2_mmu.stage2_tlb.flush_tlb_mva            0                       # Number of times TLB was flushed by MVA
system.cpu.itb.stage2_mmu.stage2_tlb.flush_tlb_mva_asid            0                       # Number of times TLB was flushed by MVA & ASID
system.cpu.itb.stage2_mmu.stage2_tlb.hits            0                       # DTB hits
system.cpu.itb.stage2_mmu.stage2_tlb.inst_accesses            0                       # ITB inst accesses
system.cpu.itb.stage2_mmu.stage2_tlb.inst_hits            0                       # ITB inst hits
system.cpu.itb.stage2_mmu.stage2_tlb.inst_misses            0                       # ITB inst misses
system.cpu.itb.stage2_mmu.stage2_tlb.misses            0                       # DTB misses
system.cpu.itb.stage2_mmu.stage2_tlb.perms_faults            0                       # Number of TLB faults due to permissions restrictions
system.cpu.itb.stage2_mmu.stage2_tlb.prefetch_faults            0                       # Number of TLB faults due to prefetch
system.cpu.itb.stage2_mmu.stage2_tlb.read_accesses            0                       # DTB read accesses
system.cpu.itb.stage2_mmu.stage2_tlb.read_hits            0                       # DTB read hits
system.cpu.itb.stage2_mmu.stage2_tlb.read_misses            0                       # DTB read misses
system.cpu.itb.stage2_mmu.stage2_tlb.walker.walkRequestOrigin_Requested::Data            0                       # Table walker requests started/completed, data/inst
system.cpu.itb.stage2_mmu.stage2_tlb.walker.walkRequestOrigin_Requested::Inst            0                       # Table walker requests started/completed, data/inst
system.cpu.itb.stage2_mmu.stage2_tlb.walker.walkRequestOrigin_Requested::total            0                       # Table walker requests started/completed, data/inst
system.cpu.itb.stage2_mmu.stage2_tlb.walker.walkRequestOrigin_Completed::Data            0                       # Table walker requests started/completed, data/inst
system.cpu.itb.stage2_mmu.stage2_tlb.walker.walkRequestOrigin_Completed::Inst            0                       # Table walker requests started/completed, data/inst
system.cpu.itb.stage2_mmu.stage2_tlb.walker.walkRequestOrigin_Completed::total            0                       # Table walker requests started/completed, data/inst
system.cpu.itb.stage2_mmu.stage2_tlb.walker.walkRequestOrigin::total            0                       # Table walker requests started/completed, data/inst
system.cpu.itb.stage2_mmu.stage2_tlb.walker.walks            0                       # Table walker walks requested
system.cpu.itb.stage2_mmu.stage2_tlb.write_accesses            0                       # DTB write accesses
system.cpu.itb.stage2_mmu.stage2_tlb.write_hits            0                       # DTB write hits
system.cpu.itb.stage2_mmu.stage2_tlb.write_misses            0                       # DTB write misses
system.cpu.itb.walker.walkRequestOrigin_Requested::Data            0                       # Table walker requests started/completed, data/inst
system.cpu.itb.walker.walkRequestOrigin_Requested::Inst            0                       # Table walker requests started/completed, data/inst
system.cpu.itb.walker.walkRequestOrigin_Requested::total            0                       # Table walker requests started/completed, data/inst
system.cpu.itb.walker.walkRequestOrigin_Completed::Data            0                       # Table walker requests started/completed, data/inst
system.cpu.itb.walker.walkRequestOrigin_Completed::Inst            0                       # Table walker requests started/completed, data/inst
system.cpu.itb.walker.walkRequestOrigin_Completed::total            0                       # Table walker requests started/completed, data/inst
system.cpu.itb.walker.walkRequestOrigin::total            0                       # Table walker requests started/completed, data/inst
system.cpu.itb.walker.walks                         0                       # Table walker walks requested
system.cpu.itb.write_accesses                       0                       # DTB write accesses
system.cpu.itb.write_hits                           0                       # DTB write hits
system.cpu.itb.write_misses                         0                       # DTB write misses
system.cpu.numCycles                        156088809                       # number of cpu cycles simulated
system.cpu.numFetchSuspends                         0                       # Number of times Execute suspended instruction fetching
system.cpu.numWorkItemsCompleted                    0                       # number of work items this cpu completed
system.cpu.numWorkItemsStarted                      0                       # number of work items this cpu started
system.cpu.op_class_0::No_OpClass                   0      0.00%      0.00% # Class of committed instruction
system.cpu.op_class_0::IntAlu                46531400     46.44%     46.44% # Class of committed instruction
system.cpu.op_class_0::IntMult                  20720      0.02%     46.46% # Class of committed instruction
system.cpu.op_class_0::IntDiv                       0      0.00%     46.46% # Class of committed instruction
system.cpu.op_class_0::FloatAdd                     0      0.00%     46.46% # Class of committed instruction
system.cpu.op_class_0::FloatCmp                     0      0.00%     46.46% # Class of committed instruction
system.cpu.op_class_0::FloatCvt                     0      0.00%     46.46% # Class of committed instruction
system.cpu.op_class_0::FloatMult                    0      0.00%     46.46% # Class of committed instruction
system.cpu.op_class_0::FloatMultAcc                 0      0.00%     46.46% # Class of committed instruction
system.cpu.op_class_0::FloatDiv                     0      0.00%     46.46% # Class of committed instruction
system.cpu.op_class_0::FloatMisc                    0      0.00%     46.46% # Class of committed instruction
system.cpu.op_class_0::FloatSqrt                    0      0.00%     46.46% # Class of committed instruction
system.cpu.op_class_0::SimdAdd                      0      0.00%     46.46% # Class of committed instruction
system.cpu.op_class_0::SimdAddAcc                   0      0.00%     46.46% # Class of committed instruction
system.cpu.op_class_0::SimdAlu                      0      0.00%     46.46% # Class of committed instruction
system.cpu.op_class_0::SimdCmp                      0      0.00%     46.46% # Class of committed instruction
system.cpu.op_class_0::SimdCvt                      0      0.00%     46.46% # Class of committed instruction
system.cpu.op_class_0::SimdMisc                     0      0.00%     46.46% # Class of committed instruction
system.cpu.op_class_0::SimdMult                     0      0.00%     46.46% # Class of committed instruction
system.cpu.op_class_0::SimdMultAcc                  0      0.00%     46.46% # Class of committed instruction
system.cpu.op_class_0::SimdShift                    0      0.00%     46.46% # Class of committed instruction
system.cpu.op_class_0::SimdShiftAcc                 0      0.00%     46.46% # Class of committed instruction
system.cpu.op_class_0::SimdDiv                      0      0.00%     46.46% # Class of committed instruction
system.cpu.op_class_0::SimdSqrt                     0      0.00%     46.46% # Class of committed instruction
system.cpu.op_class_0::SimdFloatAdd                 0      0.00%     46.46% # Class of committed instruction
system.cpu.op_class_0::SimdFloatAlu                 0      0.00%     46.46% # Class of committed instruction
system.cpu.op_class_0::SimdFloatCmp                 0      0.00%     46.46% # Class of committed instruction
system.cpu.op_class_0::SimdFloatCvt                 0      0.00%     46.46% # Class of committed instruction
system.cpu.op_class_0::SimdFloatDiv                 0      0.00%     46.46% # Class of committed instruction
system.cpu.op_class_0::SimdFloatMisc               18      0.00%     46.46% # Class of committed instruction
system.cpu.op_class_0::SimdFloatMult                0      0.00%     46.46% # Class of committed instruction
system.cpu.op_class_0::SimdFloatMultAcc             0      0.00%     46.46% # Class of committed instruction
system.cpu.op_class_0::SimdFloatSqrt                0      0.00%     46.46% # Class of committed instruction
system.cpu.op_class_0::SimdReduceAdd                0      0.00%     46.46% # Class of committed instruction
system.cpu.op_class_0::SimdReduceAlu                0      0.00%     46.46% # Class of committed instruction
system.cpu.op_class_0::SimdReduceCmp                0      0.00%     46.46% # Class of committed instruction
system.cpu.op_class_0::SimdFloatReduceAdd            0      0.00%     46.46% # Class of committed instruction
system.cpu.op_class_0::SimdFloatReduceCmp            0      0.00%     46.46% # Class of committed instruction
system.cpu.op_class_0::SimdAes                      0      0.00%     46.46% # Class of committed instruction
system.cpu.op_class_0::SimdAesMix                   0      0.00%     46.46% # Class of committed instruction
system.cpu.op_class_0::SimdSha1Hash                 0      0.00%     46.46% # Class of committed instruction
system.cpu.op_class_0::SimdSha1Hash2                0      0.00%     46.46% # Class of committed instruction
system.cpu.op_class_0::SimdSha256Hash               0      0.00%     46.46% # Class of committed instruction
system.cpu.op_class_0::SimdSha256Hash2              0      0.00%     46.46% # Class of committed instruction
system.cpu.op_class_0::SimdShaSigma2                0      0.00%     46.46% # Class of committed instruction
system.cpu.op_class_0::SimdShaSigma3                0      0.00%     46.46% # Class of committed instruction
system.cpu.op_class_0::SimdPredAlu                  0      0.00%     46.46% # Class of committed instruction
system.cpu.op_class_0::MemRead               42693601     42.61%     89.07% # Class of committed instruction
system.cpu.op_class_0::MemWrite              10950624     10.93%    100.00% # Class of committed instruction
system.cpu.op_class_0::FloatMemRead                 0      0.00%    100.00% # Class of committed instruction
system.cpu.op_class_0::FloatMemWrite                0      0.00%    100.00% # Class of committed instruction
system.cpu.op_class_0::IprAccess                    0      0.00%    100.00% # Class of committed instruction
system.cpu.op_class_0::InstPrefetch                 0      0.00%    100.00% # Class of committed instruction
system.cpu.op_class_0::total                100196363                       # Class of committed instruction
system.cpu.tickCycles                       132329919                       # Number of cycles that the object actually ticked
system.cpu.workload.numSyscalls                    84                       # Number of system calls
system.membus.snoop_filter.hit_multi_requests            0                       # Number of requests hitting in the snoop filter with multiple (>1) holders of the requested data.
system.membus.snoop_filter.hit_multi_snoops            0                       # Number of snoops hitting in the snoop filter with multiple (>1) holders of the requested data.
system.membus.snoop_filter.hit_single_requests       113315                       # Number of requests hitting in the snoop filter with a single holder of the requested data.
system.membus.snoop_filter.hit_single_snoops            0                       # Number of snoops hitting in the snoop filter with a single holder of the requested data.
system.membus.snoop_filter.tot_requests        292690                       # Total number of requests made to the snoop filter.
system.membus.snoop_filter.tot_snoops               0                       # Total number of snoops made to the snoop filter.
system.tol2bus.snoop_filter.hit_multi_requests           64                       # Number of requests hitting in the snoop filter with multiple (>1) holders of the requested data.
system.tol2bus.snoop_filter.hit_multi_snoops            0                       # Number of snoops hitting in the snoop filter with multiple (>1) holders of the requested data.
system.tol2bus.snoop_filter.hit_single_requests       509326                       # Number of requests hitting in the snoop filter with a single holder of the requested data.
system.tol2bus.snoop_filter.hit_single_snoops         1691                       # Number of snoops hitting in the snoop filter with a single holder of the requested data.
system.tol2bus.snoop_filter.tot_requests      1021372                       # Total number of requests made to the snoop filter.
system.tol2bus.snoop_filter.tot_snoops           1691                       # Total number of snoops made to the snoop filter.
system.membus.pwrStateResidencyTicks::UNDEFINED 156088809000                       # Cumulative time (in ticks) in various power states
system.membus.trans_dist::ReadResp              51110                       # Transaction distribution
system.membus.trans_dist::WritebackDirty        65601                       # Transaction distribution
system.membus.trans_dist::CleanEvict            47706                       # Transaction distribution
system.membus.trans_dist::ReadExReq            128273                       # Transaction distribution
system.membus.trans_dist::ReadExResp           128273                       # Transaction distribution
system.membus.trans_dist::ReadSharedReq         51110                       # Transaction distribution
system.membus.pkt_count_system.l2.mem_side::system.mem_ctrls.port       472073                       # Packet count per connected master and slave (bytes)
system.membus.pkt_count::total                 472073                       # Packet count per connected master and slave (bytes)
system.membus.pkt_size_system.l2.mem_side::system.mem_ctrls.port     15678976                       # Cumulative packet size per connected master and slave (bytes)
system.membus.pkt_size::total                15678976                       # Cumulative packet size per connected master and slave (bytes)
system.membus.snoops                                0                       # Total snoops (count)
system.membus.snoopTraffic                          0                       # Total snoop traffic (bytes)
system.membus.snoop_fanout::samples            179383                       # Request fanout histogram
system.membus.snoop_fanout::mean                    0                       # Request fanout histogram
system.membus.snoop_fanout::stdev                   0                       # Request fanout histogram
system.membus.snoop_fanout::underflows              0      0.00%      0.00% # Request fanout histogram
system.membus.snoop_fanout::0                  179383    100.00%    100.00% # Request fanout histogram
system.membus.snoop_fanout::1                       0      0.00%    100.00% # Request fanout histogram
system.membus.snoop_fanout::overflows               0      0.00%    100.00% # Request fanout histogram
system.membus.snoop_fanout::min_value               0                       # Request fanout histogram
system.membus.snoop_fanout::max_value               0                       # Request fanout histogram
system.membus.snoop_fanout::total              179383                       # Request fanout histogram
system.membus.respLayer1.occupancy          968349250                       # Layer occupancy (ticks)
system.membus.respLayer1.utilization              0.6                       # Layer utilization (%)
system.membus.reqLayer0.occupancy           555094000                       # Layer occupancy (ticks)
system.membus.reqLayer0.utilization               0.4                       # Layer utilization (%)
system.tol2bus.pwrStateResidencyTicks::UNDEFINED 156088809000                       # Cumulative time (in ticks) in various power states
system.tol2bus.trans_dist::ReadResp            279178                       # Transaction distribution
system.tol2bus.trans_dist::WritebackDirty       519557                       # Transaction distribution
system.tol2bus.trans_dist::CleanEvict          103615                       # Transaction distribution
system.tol2bus.trans_dist::ReadExReq           232870                       # Transaction distribution
system.tol2bus.trans_dist::ReadExResp          232869                       # Transaction distribution
system.tol2bus.trans_dist::ReadCleanReq           675                       # Transaction distribution
system.tol2bus.trans_dist::ReadSharedReq       278503                       # Transaction distribution
system.tol2bus.pkt_count_system.cpu.icache.mem_side::system.l2.cpu_side         1350                       # Packet count per connected master and slave (bytes)
system.tol2bus.pkt_count_system.cpu.dcache.mem_side::system.l2.cpu_side      1532069                       # Packet count per connected master and slave (bytes)
system.tol2bus.pkt_count::total               1533419                       # Packet count per connected master and slave (bytes)
system.tol2bus.pkt_size_system.cpu.icache.mem_side::system.l2.cpu_side        43200                       # Cumulative packet size per connected master and slave (bytes)
system.tol2bus.pkt_size_system.cpu.dcache.mem_side::system.l2.cpu_side     61780992                       # Cumulative packet size per connected master and slave (bytes)
system.tol2bus.pkt_size::total               61824192                       # Cumulative packet size per connected master and slave (bytes)
system.tol2bus.snoops                          113848                       # Total snoops (count)
system.tol2bus.snoopTraffic                   4198464                       # Total snoop traffic (bytes)
system.tol2bus.snoop_fanout::samples           625896                       # Request fanout histogram
system.tol2bus.snoop_fanout::mean            0.002807                       # Request fanout histogram
system.tol2bus.snoop_fanout::stdev           0.052908                       # Request fanout histogram
system.tol2bus.snoop_fanout::underflows             0      0.00%      0.00% # Request fanout histogram
system.tol2bus.snoop_fanout::0                 624139     99.72%     99.72% # Request fanout histogram
system.tol2bus.snoop_fanout::1                   1757      0.28%    100.00% # Request fanout histogram
system.tol2bus.snoop_fanout::2                      0      0.00%    100.00% # Request fanout histogram
system.tol2bus.snoop_fanout::overflows              0      0.00%    100.00% # Request fanout histogram
system.tol2bus.snoop_fanout::min_value              0                       # Request fanout histogram
system.tol2bus.snoop_fanout::max_value              1                       # Request fanout histogram
system.tol2bus.snoop_fanout::total             625896                       # Request fanout histogram
system.tol2bus.reqLayer0.occupancy         1929284000                       # Layer occupancy (ticks)
system.tol2bus.reqLayer0.utilization              1.2                       # Layer utilization (%)
system.tol2bus.respLayer1.occupancy        1534119996                       # Layer occupancy (ticks)
system.tol2bus.respLayer1.utilization             1.0                       # Layer utilization (%)
system.tol2bus.respLayer0.occupancy           2025000                       # Layer occupancy (ticks)
system.tol2bus.respLayer0.utilization             0.0                       # Layer utilization (%)
system.voltage_domain.voltage                       1                       # Voltage in Volts
system.clk_domain.clock                          1000                       # Clock period in ticks
system.l2.pwrStateResidencyTicks::UNDEFINED 156088809000                       # Cumulative time (in ticks) in various power states
system.l2.demand_hits::.cpu.inst                   19                       # number of demand (read+write) hits
system.l2.demand_hits::.cpu.data               332642                       # number of demand (read+write) hits
system.l2.demand_hits::total                   332661                       # number of demand (read+write) hits
system.l2.overall_hits::.cpu.inst                  19                       # number of overall hits
system.l2.overall_hits::.cpu.data              332642                       # number of overall hits
system.l2.overall_hits::total                  332661                       # number of overall hits
system.l2.demand_misses::.cpu.inst                656                       # number of demand (read+write) misses
system.l2.demand_misses::.cpu.data             178731                       # number of demand (read+write) misses
system.l2.demand_misses::total                 179387                       # number of demand (read+write) misses
system.l2.overall_misses::.cpu.inst               656                       # number of overall misses
system.l2.overall_misses::.cpu.data            178731                       # number of overall misses
system.l2.overall_misses::total                179387                       # number of overall misses
system.l2.demand_miss_latency::.cpu.inst     64301000                       # number of demand (read+write) miss cycles
system.l2.demand_miss_latency::.cpu.data  18357948000                       # number of demand (read+write) miss cycles
system.l2.demand_miss_latency::total      18422249000                       # number of demand (read+write) miss cycles
system.l2.overall_miss_latency::.cpu.inst     64301000                       # number of overall miss cycles
system.l2.overall_miss_latency::.cpu.data  18357948000                       # number of overall miss cycles
system.l2.overall_miss_latency::total     18422249000                       # number of overall miss cycles
system.l2.demand_accesses::.cpu.inst              675                       # number of demand (read+write) accesses
system.l2.demand_accesses::.cpu.data           511373                       # number of demand (read+write) accesses
system.l2.demand_accesses::total               512048                       # number of demand (read+write) accesses
system.l2.overall_accesses::.cpu.inst             675                       # number of overall (read+write) accesses
system.l2.overall_accesses::.cpu.data          511373                       # number of overall (read+write) accesses
system.l2.overall_accesses::total              512048                       # number of overall (read+write) accesses
system.l2.demand_miss_rate::.cpu.inst        0.971852                       # miss rate for demand accesses
system.l2.demand_miss_rate::.cpu.data        0.349512                       # miss rate for demand accesses
system.l2.demand_miss_rate::total            0.350332                       # miss rate for demand accesses
system.l2.overall_miss_rate::.cpu.inst       0.971852                       # miss rate for overall accesses
system.l2.overall_miss_rate::.cpu.data       0.349512                       # miss rate for overall accesses
system.l2.overall_miss_rate::total           0.350332                       # miss rate for overall accesses
system.l2.demand_avg_miss_latency::.cpu.inst 98019.817073                       # average overall miss latency
system.l2.demand_avg_miss_latency::.cpu.data 102712.724709                       # average overall miss latency
system.l2.demand_avg_miss_latency::total 102695.563224                       # average overall miss latency
system.l2.overall_avg_miss_latency::.cpu.inst 98019.817073                       # average overall miss latency
system.l2.overall_avg_miss_latency::.cpu.data 102712.724709                       # average overall miss latency
system.l2.overall_avg_miss_latency::total 102695.563224                       # average overall miss latency
system.l2.blocked_cycles::no_mshrs                  0                       # number of cycles access was blocked
system.l2.blocked_cycles::no_targets                0                       # number of cycles access was blocked
system.l2.blocked::no_mshrs                         0                       # number of cycles access was blocked
system.l2.blocked::no_targets                       0                       # number of cycles access was blocked
system.l2.avg_blocked_cycles::no_mshrs            nan                       # average number of cycles each access was blocked
system.l2.avg_blocked_cycles::no_targets          nan                       # average number of cycles each access was blocked
system.l2.writebacks::.writebacks               65601                       # number of writebacks
system.l2.writebacks::total                     65601                       # number of writebacks
system.l2.demand_mshr_hits::.cpu.data               4                       # number of demand (read+write) MSHR hits
system.l2.demand_mshr_hits::total                   4                       # number of demand (read+write) MSHR hits
system.l2.overall_mshr_hits::.cpu.data              4                       # number of overall MSHR hits
system.l2.overall_mshr_hits::total                  4                       # number of overall MSHR hits
system.l2.demand_mshr_misses::.cpu.inst           656                       # number of demand (read+write) MSHR misses
system.l2.demand_mshr_misses::.cpu.data        178727                       # number of demand (read+write) MSHR misses
system.l2.demand_mshr_misses::total            179383                       # number of demand (read+write) MSHR misses
system.l2.overall_mshr_misses::.cpu.inst          656                       # number of overall MSHR misses
system.l2.overall_mshr_misses::.cpu.data       178727                       # number of overall MSHR misses
system.l2.overall_mshr_misses::total           179383                       # number of overall MSHR misses
system.l2.demand_mshr_miss_latency::.cpu.inst     51181000                       # number of demand (read+write) MSHR miss cycles
system.l2.demand_mshr_miss_latency::.cpu.data  14783118000                       # number of demand (read+write) MSHR miss cycles
system.l2.demand_mshr_miss_latency::total  14834299000                       # number of demand (read+write) MSHR miss cycles
system.l2.overall_mshr_miss_latency::.cpu.inst     51181000                       # number of overall MSHR miss cycles
system.l2.overall_mshr_miss_latency::.cpu.data  14783118000                       # number of overall MSHR miss cycles
system.l2.overall_mshr_miss_latency::total  14834299000                       # number of overall MSHR miss cycles
system.l2.demand_mshr_miss_rate::.cpu.inst     0.971852                       # mshr miss rate for demand accesses
system.l2.demand_mshr_miss_rate::.cpu.data     0.349504                       # mshr miss rate for demand accesses
system.l2.demand_mshr_miss_rate::total       0.350325                       # mshr miss rate for demand accesses
system.l2.overall_mshr_miss_rate::.cpu.inst     0.971852                       # mshr miss rate for overall accesses
system.l2.overall_mshr_miss_rate::.cpu.data     0.349504                       # mshr miss rate for overall accesses
system.l2.overall_mshr_miss_rate::total      0.350325                       # mshr miss rate for overall accesses
system.l2.demand_avg_mshr_miss_latency::.cpu.inst 78019.817073                       # average overall mshr miss latency
system.l2.demand_avg_mshr_miss_latency::.cpu.data 82713.400885                       # average overall mshr miss latency
system.l2.demand_avg_mshr_miss_latency::total 82696.236544                       # average overall mshr miss latency
system.l2.overall_avg_mshr_miss_latency::.cpu.inst 78019.817073                       # average overall mshr miss latency
system.l2.overall_avg_mshr_miss_latency::.cpu.data 82713.400885                       # average overall mshr miss latency
system.l2.overall_avg_mshr_miss_latency::total 82696.236544                       # average overall mshr miss latency
system.l2.replacements                         113848                       # number of replacements
system.l2.WritebackDirty_hits::.writebacks       453956                       # number of WritebackDirty hits
system.l2.WritebackDirty_hits::total           453956                       # number of WritebackDirty hits
system.l2.WritebackDirty_accesses::.writebacks       453956                       # number of WritebackDirty accesses(hits+misses)
system.l2.WritebackDirty_accesses::total       453956                       # number of WritebackDirty accesses(hits+misses)
system.l2.CleanEvict_mshr_misses::.writebacks         1150                       # number of CleanEvict MSHR misses
system.l2.CleanEvict_mshr_misses::total          1150                       # number of CleanEvict MSHR misses
system.l2.CleanEvict_mshr_miss_rate::.writebacks          inf                       # mshr miss rate for CleanEvict accesses
system.l2.CleanEvict_mshr_miss_rate::total          inf                       # mshr miss rate for CleanEvict accesses
system.l2.ReadExReq_hits::.cpu.data            104597                       # number of ReadExReq hits
system.l2.ReadExReq_hits::total                104597                       # number of ReadExReq hits
system.l2.ReadExReq_misses::.cpu.data          128273                       # number of ReadExReq misses
system.l2.ReadExReq_misses::total              128273                       # number of ReadExReq misses
system.l2.ReadExReq_miss_latency::.cpu.data  13424143000                       # number of ReadExReq miss cycles
system.l2.ReadExReq_miss_latency::total   13424143000                       # number of ReadExReq miss cycles
system.l2.ReadExReq_accesses::.cpu.data        232870                       # number of ReadExReq accesses(hits+misses)
system.l2.ReadExReq_accesses::total            232870                       # number of ReadExReq accesses(hits+misses)
system.l2.ReadExReq_miss_rate::.cpu.data     0.550835                       # miss rate for ReadExReq accesses
system.l2.ReadExReq_miss_rate::total         0.550835                       # miss rate for ReadExReq accesses
system.l2.ReadExReq_avg_miss_latency::.cpu.data 104652.912148                       # average ReadExReq miss latency
system.l2.ReadExReq_avg_miss_latency::total 104652.912148                       # average ReadExReq miss latency
system.l2.ReadExReq_mshr_misses::.cpu.data       128273                       # number of ReadExReq MSHR misses
system.l2.ReadExReq_mshr_misses::total         128273                       # number of ReadExReq MSHR misses
system.l2.ReadExReq_mshr_miss_latency::.cpu.data  10858683000                       # number of ReadExReq MSHR miss cycles
system.l2.ReadExReq_mshr_miss_latency::total  10858683000                       # number of ReadExReq MSHR miss cycles
system.l2.ReadExReq_mshr_miss_rate::.cpu.data     0.550835                       # mshr miss rate for ReadExReq accesses
system.l2.ReadExReq_mshr_miss_rate::total     0.550835                       # mshr miss rate for ReadExReq accesses
system.l2.ReadExReq_avg_mshr_miss_latency::.cpu.data 84652.912148                       # average ReadExReq mshr miss latency
system.l2.ReadExReq_avg_mshr_miss_latency::total 84652.912148                       # average ReadExReq mshr miss latency
system.l2.ReadCleanReq_hits::.cpu.inst             19                       # number of ReadCleanReq hits
system.l2.ReadCleanReq_hits::total                 19                       # number of ReadCleanReq hits
system.l2.ReadCleanReq_misses::.cpu.inst          656                       # number of ReadCleanReq misses
system.l2.ReadCleanReq_misses::total              656                       # number of ReadCleanReq misses
system.l2.ReadCleanReq_miss_latency::.cpu.inst     64301000                       # number of ReadCleanReq miss cycles
system.l2.ReadCleanReq_miss_latency::total     64301000                       # number of ReadCleanReq miss cycles
system.l2.ReadCleanReq_accesses::.cpu.inst          675                       # number of ReadCleanReq accesses(hits+misses)
system.l2.ReadCleanReq_accesses::total            675                       # number of ReadCleanReq accesses(hits+misses)
system.l2.ReadCleanReq_miss_rate::.cpu.inst     0.971852                       # miss rate for ReadCleanReq accesses
system.l2.ReadCleanReq_miss_rate::total      0.971852                       # miss rate for ReadCleanReq accesses
system.l2.ReadCleanReq_avg_miss_latency::.cpu.inst 98019.817073                       # average ReadCleanReq miss latency
system.l2.ReadCleanReq_avg_miss_latency::total 98019.817073                       # average ReadCleanReq miss latency
system.l2.ReadCleanReq_mshr_misses::.cpu.inst          656                       # number of ReadCleanReq MSHR misses
system.l2.ReadCleanReq_mshr_misses::total          656                       # number of ReadCleanReq MSHR misses
system.l2.ReadCleanReq_mshr_miss_latency::.cpu.inst     51181000                       # number of ReadCleanReq MSHR miss cycles
system.l2.ReadCleanReq_mshr_miss_latency::total     51181000                       # number of ReadCleanReq MSHR miss cycles
system.l2.ReadCleanReq_mshr_miss_rate::.cpu.inst     0.971852                       # mshr miss rate for ReadCleanReq accesses
system.l2.ReadCleanReq_mshr_miss_rate::total     0.971852                       # mshr miss rate for ReadCleanReq accesses
system.l2.ReadCleanReq_avg_mshr_miss_latency::.cpu.inst 78019.817073                       # average ReadCleanReq mshr miss latency
system.l2.ReadCleanReq_avg_mshr_miss_latency::total 78019.817073                       # average ReadCleanReq mshr miss latency
system.l2.ReadSharedReq_hits::.cpu.data        228045                       # number of ReadSharedReq hits
system.l2.ReadSharedReq_hits::total            228045                       # number of ReadSharedReq hits
system.l2.ReadSharedReq_misses::.cpu.data        50458                       # number of ReadSharedReq misses
system.l2.ReadSharedReq_misses::total           50458                       # number of ReadSharedReq misses
system.l2.ReadSharedReq_miss_latency::.cpu.data   4933805000                       # number of ReadSharedReq miss cycles
system.l2.ReadSharedReq_miss_latency::total   4933805000                       # number of ReadSharedReq miss cycles
system.l2.ReadSharedReq_accesses::.cpu.data       278503                       # number of ReadSharedReq accesses(hits+misses)
system.l2.ReadSharedReq_accesses::total        278503                       # number of ReadSharedReq accesses(hits+misses)
system.l2.ReadSharedReq_miss_rate::.cpu.data     0.181176                       # miss rate for ReadSharedReq accesses
system.l2.ReadSharedReq_miss_rate::total     0.181176                       # miss rate for ReadSharedReq accesses
system.l2.ReadSharedReq_avg_miss_latency::.cpu.data 97780.431250                       # average ReadSharedReq miss latency
system.l2.ReadSharedReq_avg_miss_latency::total 97780.431250                       # average ReadSharedReq miss latency
system.l2.ReadSharedReq_mshr_hits::.cpu.data            4                       # number of ReadSharedReq MSHR hits
system.l2.ReadSharedReq_mshr_hits::total            4                       # number of ReadSharedReq MSHR hits
system.l2.ReadSharedReq_mshr_misses::.cpu.data        50454                       # number of ReadSharedReq MSHR misses
system.l2.ReadSharedReq_mshr_misses::total        50454                       # number of ReadSharedReq MSHR misses
system.l2.ReadSharedReq_mshr_miss_latency::.cpu.data   3924435000                       # number of ReadSharedReq MSHR miss cycles
system.l2.ReadSharedReq_mshr_miss_latency::total   3924435000                       # number of ReadSharedReq MSHR miss cycles
system.l2.ReadSharedReq_mshr_miss_rate::.cpu.data     0.181161                       # mshr miss rate for ReadSharedReq accesses
system.l2.ReadSharedReq_mshr_miss_rate::total     0.181161                       # mshr miss rate for ReadSharedReq accesses
system.l2.ReadSharedReq_avg_mshr_miss_latency::.cpu.data 77782.435486                       # average ReadSharedReq mshr miss latency
system.l2.ReadSharedReq_avg_mshr_miss_latency::total 77782.435486                       # average ReadSharedReq mshr miss latency
system.l2.tags.pwrStateResidencyTicks::UNDEFINED 156088809000                       # Cumulative time (in ticks) in various power states
system.l2.tags.tagsinuse                 63857.782683                       # Cycle average of tags in use
system.l2.tags.total_refs                     1020154                       # Total number of references to valid blocks.
system.l2.tags.sampled_refs                    179384                       # Sample count of references to valid blocks.
system.l2.tags.avg_refs                      5.686984                       # Average number of references to valid blocks.
system.l2.tags.warmup_cycle                     87000                       # Cycle when the warmup percentage was hit.
system.l2.tags.occ_blocks::.writebacks       0.495642                       # Average occupied blocks per requestor
system.l2.tags.occ_blocks::.cpu.inst       108.804700                       # Average occupied blocks per requestor
system.l2.tags.occ_blocks::.cpu.data     63748.482341                       # Average occupied blocks per requestor
system.l2.tags.occ_percent::.writebacks      0.000008                       # Average percentage of cache occupancy
system.l2.tags.occ_percent::.cpu.inst        0.001660                       # Average percentage of cache occupancy
system.l2.tags.occ_percent::.cpu.data        0.972725                       # Average percentage of cache occupancy
system.l2.tags.occ_percent::total            0.974392                       # Average percentage of cache occupancy
system.l2.tags.occ_task_id_blocks::1024         65536                       # Occupied blocks per task id
system.l2.tags.age_task_id_blocks_1024::0            8                       # Occupied blocks per task id
system.l2.tags.age_task_id_blocks_1024::1            3                       # Occupied blocks per task id
system.l2.tags.age_task_id_blocks_1024::2           39                       # Occupied blocks per task id
system.l2.tags.age_task_id_blocks_1024::3          564                       # Occupied blocks per task id
system.l2.tags.age_task_id_blocks_1024::4        64922                       # Occupied blocks per task id
system.l2.tags.occ_task_id_percent::1024            1                       # Percentage of cache occupancy per task id
system.l2.tags.tag_accesses                   4264616                       # Number of tag accesses
system.l2.tags.data_accesses                  4264616                       # Number of data accesses
system.cpu_voltage_domain.voltage                   1                       # Voltage in Volts
system.mem_ctrls.pwrStateResidencyTicks::UNDEFINED 156088809000                       # Cumulative time (in ticks) in various power states
system.mem_ctrls.bytes_read::.cpu.inst          41984                       # Number of bytes read from this memory
system.mem_ctrls.bytes_read::.cpu.data       11438528                       # Number of bytes read from this memory
system.mem_ctrls.bytes_read::total           11480512                       # Number of bytes read from this memory
system.mem_ctrls.bytes_inst_read::.cpu.inst        41984                       # Number of instructions bytes read from this memory
system.mem_ctrls.bytes_inst_read::total         41984                       # Number of instructions bytes read from this memory
system.mem_ctrls.bytes_written::.writebacks      4198464                       # Number of bytes written to this memory
system.mem_ctrls.bytes_written::total         4198464                       # Number of bytes written to this memory
system.mem_ctrls.num_reads::.cpu.inst             656                       # Number of read requests responded to by this memory
system.mem_ctrls.num_reads::.cpu.data          178727                       # Number of read requests responded to by this memory
system.mem_ctrls.num_reads::total              179383                       # Number of read requests responded to by this memory
system.mem_ctrls.num_writes::.writebacks        65601                       # Number of write requests responded to by this memory
system.mem_ctrls.num_writes::total              65601                       # Number of write requests responded to by this memory
system.mem_ctrls.bw_read::.cpu.inst            268975                       # Total read bandwidth from this memory (bytes/s)
system.mem_ctrls.bw_read::.cpu.data          73282179                       # Total read bandwidth from this memory (bytes/s)
system.mem_ctrls.bw_read::total              73551154                       # Total read bandwidth from this memory (bytes/s)
system.mem_ctrls.bw_inst_read::.cpu.inst       268975                       # Instruction read bandwidth from this memory (bytes/s)
system.mem_ctrls.bw_inst_read::total           268975                       # Instruction read bandwidth from this memory (bytes/s)
system.mem_ctrls.bw_write::.writebacks       26897918                       # Write bandwidth from this memory (bytes/s)
system.mem_ctrls.bw_write::total             26897918                       # Write bandwidth from this memory (bytes/s)
system.mem_ctrls.bw_total::.writebacks       26897918                       # Total bandwidth to/from this memory (bytes/s)
system.mem_ctrls.bw_total::.cpu.inst           268975                       # Total bandwidth to/from this memory (bytes/s)
system.mem_ctrls.bw_total::.cpu.data         73282179                       # Total bandwidth to/from this memory (bytes/s)
system.mem_ctrls.bw_total::total            100449072                       # Total bandwidth to/from this memory (bytes/s)
system.mem_ctrls.avgPriority_.writebacks::samples     65601.00                       # Average QoS priority value for accepted requests
system.mem_ctrls.avgPriority_.cpu.inst::samples       656.00                       # Average QoS priority value for accepted requests
system.mem_ctrls.avgPriority_.cpu.data::samples    178703.00                       # Average QoS priority value for accepted requests
system.mem_ctrls.priorityMinLatency      0.000000018750                       # per QoS priority minimum request to response latency (s)
system.mem_ctrls.priorityMaxLatency      0.026856208750                       # per QoS priority maximum request to response latency (s)
system.mem_ctrls.numReadWriteTurnArounds         3930                       # Number of turnarounds from READ to WRITE
system.mem_ctrls.numWriteReadTurnArounds         3930                       # Number of turnarounds from WRITE to READ
system.mem_ctrls.numStayReadState              457871                       # Number of times bus staying in READ state
system.mem_ctrls.numStayWriteState              61733                       # Number of times bus staying in WRITE state
system.mem_ctrls.readReqs                      179383                       # Number of read requests accepted
system.mem_ctrls.writeReqs                      65601                       # Number of write requests accepted
system.mem_ctrls.readBursts                    179383                       # Number of DRAM read bursts, including those serviced by the write queue
system.mem_ctrls.writeBursts                    65601                       # Number of DRAM write bursts, including those merged in the write queue
system.mem_ctrls.servicedByWrQ                     24                       # Number of DRAM read bursts serviced by the write queue
system.mem_ctrls.mergedWrBursts                     0                       # Number of DRAM write bursts merged with an existing one
system.mem_ctrls.neitherReadNorWriteReqs            0                       # Number of requests that are neither read nor write
system.mem_ctrls.perBankRdBursts::0             11343                       # Per bank write bursts
system.mem_ctrls.perBankRdBursts::1             11261                       # Per bank write bursts
system.mem_ctrls.perBankRdBursts::2             11331                       # Per bank write bursts
system.mem_ctrls.perBankRdBursts::3             11115                       # Per bank write bursts
system.mem_ctrls.perBankRdBursts::4             11111                       # Per bank write bursts
system.mem_ctrls.perBankRdBursts::5             11093                       # Per bank write bursts
system.mem_ctrls.perBankRdBursts::6             10992                       # Per bank write bursts
system.mem_ctrls.perBankRdBursts::7             11255                       # Per bank write bursts
system.mem_ctrls.perBankRdBursts::8             11323                       # Per bank write bursts
system.mem_ctrls.perBankRdBursts::9             11260                       # Per bank write bursts
system.mem_ctrls.perBankRdBursts::10            11353                       # Per bank write bursts
system.mem_ctrls.perBankRdBursts::11            11254                       # Per bank write bursts
system.mem_ctrls.perBankRdBursts::12            11293                       # Per bank write bursts
system.mem_ctrls.perBankRdBursts::13            11167                       # Per bank write bursts
system.mem_ctrls.perBankRdBursts::14            11040                       # Per bank write bursts
system.mem_ctrls.perBankRdBursts::15            11168                       # Per bank write bursts
system.mem_ctrls.perBankWrBursts::0              4200                       # Per bank write bursts
system.mem_ctrls.perBankWrBursts::1              4179                       # Per bank write bursts
system.mem_ctrls.perBankWrBursts::2              4175                       # Per bank write bursts
system.mem_ctrls.perBankWrBursts::3              4133                       # Per bank write bursts
system.mem_ctrls.perBankWrBursts::4              4111                       # Per bank write bursts
system.mem_ctrls.perBankWrBursts::5              4104                       # Per bank write bursts
system.mem_ctrls.perBankWrBursts::6              3959                       # Per bank write bursts
system.mem_ctrls.perBankWrBursts::7              4014                       # Per bank write bursts
system.mem_ctrls.perBankWrBursts::8              4078                       # Per bank write bursts
system.mem_ctrls.perBankWrBursts::9              4086                       # Per bank write bursts
system.mem_ctrls.perBankWrBursts::10             4084                       # Per bank write bursts
system.mem_ctrls.perBankWrBursts::11             4062                       # Per bank write bursts
system.mem_ctrls.perBankWrBursts::12             4059                       # Per bank write bursts
system.mem_ctrls.perBankWrBursts::13             4088                       # Per bank write bursts
system.mem_ctrls.perBankWrBursts::14             4093                       # Per bank write bursts
system.mem_ctrls.perBankWrBursts::15             4146                       # Per bank write bursts
system.mem_ctrls.avgRdQLen                       1.04                       # Average read queue length when enqueuing
system.mem_ctrls.avgWrQLen                      24.77                       # Average write queue length when enqueuing
system.mem_ctrls.totQLat                   2248123250                       # Total ticks spent queuing
system.mem_ctrls.totBusLat                  896795000                       # Total ticks spent in databus transfers
system.mem_ctrls.totMemAccLat              5611104500                       # Total ticks spent from burst creation until serviced by the DRAM
system.mem_ctrls.avgQLat                     12534.21                       # Average queueing delay per DRAM burst
system.mem_ctrls.avgBusLat                    5000.00                       # Average bus latency per DRAM burst
system.mem_ctrls.avgMemAccLat                31284.21                       # Average memory access latency per DRAM burst
system.mem_ctrls.numRdRetry                         0                       # Number of times read queue was full causing retry
system.mem_ctrls.numWrRetry                         0                       # Number of times write queue was full causing retry
system.mem_ctrls.readRowHits                   124893                       # Number of row buffer hits during reads
system.mem_ctrls.writeRowHits                   49583                       # Number of row buffer hits during writes
system.mem_ctrls.readRowHitRate                 69.63                       # Row buffer hit rate for reads
system.mem_ctrls.writeRowHitRate                75.58                       # Row buffer hit rate for writes
system.mem_ctrls.readPktSize::0                     0                       # Read request sizes (log2)
system.mem_ctrls.readPktSize::1                     0                       # Read request sizes (log2)
system.mem_ctrls.readPktSize::2                     0                       # Read request sizes (log2)
system.mem_ctrls.readPktSize::3                     0                       # Read request sizes (log2)
system.mem_ctrls.readPktSize::4                     0                       # Read request sizes (log2)
system.mem_ctrls.readPktSize::5                     0                       # Read request sizes (log2)
system.mem_ctrls.readPktSize::6                179383                       # Read request sizes (log2)
system.mem_ctrls.writePktSize::0                    0                       # Write request sizes (log2)
system.mem_ctrls.writePktSize::1                    0                       # Write request sizes (log2)
system.mem_ctrls.writePktSize::2                    0                       # Write request sizes (log2)
system.mem_ctrls.writePktSize::3                    0                       # Write request sizes (log2)
system.mem_ctrls.writePktSize::4                    0                       # Write request sizes (log2)
system.mem_ctrls.writePktSize::5                    0                       # Write request sizes (log2)
system.mem_ctrls.writePktSize::6                65601                       # Write request sizes (log2)
system.mem_ctrls.rdQLenPdf::0                  133113                       # What read queue length does an incoming req see
system.mem_ctrls.rdQLenPdf::1                   45728                       # What read queue length does an incoming req see
system.mem_ctrls.rdQLenPdf::2                     300                       # What read queue length does an incoming req see
system.mem_ctrls.rdQLenPdf::3                     217                       # What read queue length does an incoming req see
system.mem_ctrls.rdQLenPdf::4                       1                       # What read queue length does an incoming req see
system.mem_ctrls.rdQLenPdf::5                       0                       # What read queue length does an incoming req see
system.mem_ctrls.rdQLenPdf::6                       0                       # What read queue length does an incoming req see
system.mem_ctrls.rdQLenPdf::7                       0                       # What read queue length does an incoming req see
system.mem_ctrls.rdQLenPdf::8                       0                       # What read queue length does an incoming req see
system.mem_ctrls.rdQLenPdf::9                       0                       # What read queue length does an incoming req see
system.mem_ctrls.rdQLenPdf::10                      0                       # What read queue length does an incoming req see
system.mem_ctrls.rdQLenPdf::11                      0                       # What read queue length does an incoming req see
system.mem_ctrls.rdQLenPdf::12                      0                       # What read queue length does an incoming req see
system.mem_ctrls.rdQLenPdf::13                      0                       # What read queue length does an incoming req see
system.mem_ctrls.rdQLenPdf::14                      0                       # What read queue length does an incoming req see
system.mem_ctrls.rdQLenPdf::15                      0                       # What read queue length does an incoming req see
system.mem_ctrls.rdQLenPdf::16                      0                       # What read queue length does an incoming req see
system.mem_ctrls.rdQLenPdf::17                      0                       # What read queue length does an incoming req see
system.mem_ctrls.rdQLenPdf::18                      0                       # What read queue length does an incoming req see
system.mem_ctrls.rdQLenPdf::19                      0                       # What read queue length does an incoming req see
system.mem_ctrls.rdQLenPdf::20                      0                       # What read queue length does an incoming req see
system.mem_ctrls.rdQLenPdf::21                      0                       # What read queue length does an incoming req see
system.mem_ctrls.rdQLenPdf::22                      0                       # What read queue length does an incoming req see
system.mem_ctrls.rdQLenPdf::23                      0                       # What read queue length does an incoming req see
system.mem_ctrls.rdQLenPdf::24                      0                       # What read queue length does an incoming req see
system.mem_ctrls.rdQLenPdf::25                      0                       # What read queue length does an incoming req see
system.mem_ctrls.rdQLenPdf::26                      0                       # What read queue length does an incoming req see
system.mem_ctrls.rdQLenPdf::27                      0                       # What read queue length does an incoming req see
system.mem_ctrls.rdQLenPdf::28                      0                       # What read queue length does an incoming req see
system.mem_ctrls.rdQLenPdf::29                      0                       # What read queue length does an incoming req see
system.mem_ctrls.rdQLenPdf::30                      0                       # What read queue length does an incoming req see
system.mem_ctrls.rdQLenPdf::31                      0                       # What read queue length does an incoming req see
system.mem_ctrls.wrQLenPdf::0                       1                       # What write queue length does an incoming req see
system.mem_ctrls.wrQLenPdf::1                       1                       # What write queue length does an incoming req see
system.mem_ctrls.wrQLenPdf::2                       1                       # What write queue length does an incoming req see
system.mem_ctrls.wrQLenPdf::3                       1                       # What write queue length does an incoming req see
system.mem_ctrls.wrQLenPdf::4                       1                       # What write queue length does an incoming req see
system.mem_ctrls.wrQLenPdf::5                       1                       # What write queue length does an incoming req see
system.mem_ctrls.wrQLenPdf::6                       1                       # What write queue length does an incoming req see
system.mem_ctrls.wrQLenPdf::7                       1                       # What write queue length does an incoming req see
system.mem_ctrls.wrQLenPdf::8                       1                       # What write queue length does an incoming req see
system.mem_ctrls.wrQLenPdf::9                       1                       # What write queue length does an incoming req see
system.mem_ctrls.wrQLenPdf::10                      1                       # What write queue length does an incoming req see
system.mem_ctrls.wrQLenPdf::11                      1                       # What write queue length does an incoming req see
system.mem_ctrls.wrQLenPdf::12                      1                       # What write queue length does an incoming req see
system.mem_ctrls.wrQLenPdf::13                      1                       # What write queue length does an incoming req see
system.mem_ctrls.wrQLenPdf::14                      1                       # What write queue length does an incoming req see
system.mem_ctrls.wrQLenPdf::15                   1249                       # What write queue length does an incoming req see
system.mem_ctrls.wrQLenPdf::16                   1364                       # What write queue length does an incoming req see
system.mem_ctrls.wrQLenPdf::17                   3337                       # What write queue length does an incoming req see
system.mem_ctrls.wrQLenPdf::18                   3839                       # What write queue length does an incoming req see
system.mem_ctrls.wrQLenPdf::19                   3895                       # What write queue length does an incoming req see
system.mem_ctrls.wrQLenPdf::20                   3973                       # What write queue length does an incoming req see
system.mem_ctrls.wrQLenPdf::21                   4067                       # What write queue length does an incoming req see
system.mem_ctrls.wrQLenPdf::22                   4004                       # What write queue length does an incoming req see
system.mem_ctrls.wrQLenPdf::23                   3975                       # What write queue length does an incoming req see
system.mem_ctrls.wrQLenPdf::24                   4010                       # What write queue length does an incoming req see
system.mem_ctrls.wrQLenPdf::25                   3976                       # What write queue length does an incoming req see
system.mem_ctrls.wrQLenPdf::26                   4037                       # What write queue length does an incoming req see
system.mem_ctrls.wrQLenPdf::27                   3954                       # What write queue length does an incoming req see
system.mem_ctrls.wrQLenPdf::28                   3958                       # What write queue length does an incoming req see
system.mem_ctrls.wrQLenPdf::29                   4019                       # What write queue length does an incoming req see
system.mem_ctrls.wrQLenPdf::30                   3943                       # What write queue length does an incoming req see
system.mem_ctrls.wrQLenPdf::31                   4047                       # What write queue length does an incoming req see
system.mem_ctrls.wrQLenPdf::32                   3934                       # What write queue length does an incoming req see
system.mem_ctrls.wrQLenPdf::33                      5                       # What write queue length does an incoming req see
system.mem_ctrls.wrQLenPdf::34                      0                       # What write queue length does an incoming req see
system.mem_ctrls.wrQLenPdf::35                      0                       # What write queue length does an incoming req see
system.mem_ctrls.wrQLenPdf::36                      0                       # What write queue length does an incoming req see
system.mem_ctrls.wrQLenPdf::37                      0                       # What write queue length does an incoming req see
system.mem_ctrls.wrQLenPdf::38                      0                       # What write queue length does an incoming req see
system.mem_ctrls.wrQLenPdf::39                      0                       # What write queue length does an incoming req see
system.mem_ctrls.wrQLenPdf::40                      0                       # What write queue length does an incoming req see
system.mem_ctrls.wrQLenPdf::41                      0                       # What write queue length does an incoming req see
system.mem_ctrls.wrQLenPdf::42                      0                       # What write queue length does an incoming req see
system.mem_ctrls.wrQLenPdf::43                      0                       # What write queue length does an incoming req see
system.mem_ctrls.wrQLenPdf::44                      0                       # What write queue length does an incoming req see
system.mem_ctrls.wrQLenPdf::45                      0                       # What write queue length does an incoming req see
system.mem_ctrls.wrQLenPdf::46                      0                       # What write queue length does an incoming req see
system.mem_ctrls.wrQLenPdf::47                      0                       # What write queue length does an incoming req see
system.mem_ctrls.wrQLenPdf::48                      0                       # What write queue length does an incoming req see
system.mem_ctrls.wrQLenPdf::49                      0                       # What write queue length does an incoming req see
system.mem_ctrls.wrQLenPdf::50                      0                       # What write queue length does an incoming req see
system.mem_ctrls.wrQLenPdf::51                      0                       # What write queue length does an incoming req see
system.mem_ctrls.wrQLenPdf::52                      0                       # What write queue length does an incoming req see
system.mem_ctrls.wrQLenPdf::53                      0                       # What write queue length does an incoming req see
system.mem_ctrls.wrQLenPdf::54                      0                       # What write queue length does an incoming req see
system.mem_ctrls.wrQLenPdf::55                      0                       # What write queue length does an incoming req see
system.mem_ctrls.wrQLenPdf::56                      0                       # What write queue length does an incoming req see
system.mem_ctrls.wrQLenPdf::57                      0                       # What write queue length does an incoming req see
system.mem_ctrls.wrQLenPdf::58                      0                       # What write queue length does an incoming req see
system.mem_ctrls.wrQLenPdf::59                      0                       # What write queue length does an incoming req see
system.mem_ctrls.wrQLenPdf::60                      0                       # What write queue length does an incoming req see
system.mem_ctrls.wrQLenPdf::61                      0                       # What write queue length does an incoming req see
system.mem_ctrls.wrQLenPdf::62                      0                       # What write queue length does an incoming req see
system.mem_ctrls.wrQLenPdf::63                      0                       # What write queue length does an incoming req see
system.mem_ctrls.bytesPerActivate::samples        70452                       # Bytes accessed per row activation
system.mem_ctrls.bytesPerActivate::mean    222.495657                       # Bytes accessed per row activation
system.mem_ctrls.bytesPerActivate::gmean   124.369194                       # Bytes accessed per row activation
system.mem_ctrls.bytesPerActivate::stdev   279.729094                       # Bytes accessed per row activation
system.mem_ctrls.bytesPerActivate::0-127        45442     64.50%     64.50% # Bytes accessed per row activation
system.mem_ctrls.bytesPerActivate::128-255         5419      7.69%     72.19% # Bytes accessed per row activation
system.mem_ctrls.bytesPerActivate::256-383         3848      5.46%     77.65% # Bytes accessed per row activation
system.mem_ctrls.bytesPerActivate::384-511         1355      1.92%     79.58% # Bytes accessed per row activation
system.mem_ctrls.bytesPerActivate::512-639         8093     11.49%     91.06% # Bytes accessed per row activation
system.mem_ctrls.bytesPerActivate::640-767          739      1.05%     92.11% # Bytes accessed per row activation
system.mem_ctrls.bytesPerActivate::768-895          370      0.53%     92.64% # Bytes accessed per row activation
system.mem_ctrls.bytesPerActivate::896-1023          314      0.45%     93.08% # Bytes accessed per row activation
system.mem_ctrls.bytesPerActivate::1024-1151         4872      6.92%    100.00% # Bytes accessed per row activation
system.mem_ctrls.bytesPerActivate::total        70452                       # Bytes accessed per row activation
system.mem_ctrls.rdPerTurnAround::samples         3930                       # Reads before turning the bus around for writes
system.mem_ctrls.rdPerTurnAround::mean      45.634606                       # Reads before turning the bus around for writes
system.mem_ctrls.rdPerTurnAround::gmean     27.644813                       # Reads before turning the bus around for writes
system.mem_ctrls.rdPerTurnAround::stdev    101.657274                       # Reads before turning the bus around for writes
system.mem_ctrls.rdPerTurnAround::0-255          3660     93.13%     93.13% # Reads before turning the bus around for writes
system.mem_ctrls.rdPerTurnAround::256-511          255      6.49%     99.62% # Reads before turning the bus around for writes
system.mem_ctrls.rdPerTurnAround::512-767           13      0.33%     99.95% # Reads before turning the bus around for writes
system.mem_ctrls.rdPerTurnAround::768-1023            1      0.03%     99.97% # Reads before turning the bus around for writes
system.mem_ctrls.rdPerTurnAround::4352-4607            1      0.03%    100.00% # Reads before turning the bus around for writes
system.mem_ctrls.rdPerTurnAround::total          3930                       # Reads before turning the bus around for writes
system.mem_ctrls.wrPerTurnAround::samples         3930                       # Writes before turning the bus around for reads
system.mem_ctrls.wrPerTurnAround::mean      16.684733                       # Writes before turning the bus around for reads
system.mem_ctrls.wrPerTurnAround::gmean     16.655024                       # Writes before turning the bus around for reads
system.mem_ctrls.wrPerTurnAround::stdev      1.015831                       # Writes before turning the bus around for reads
[...]
system.cpu.icache.ReadReq_avg_miss_latency::total 100906.666667                       # average ReadReq miss latency
system.cpu.icache.ReadReq_mshr_misses::.cpu.inst          675                       # number of ReadReq MSHR misses
system.cpu.icache.ReadReq_mshr_misses::total          675                       # number of ReadReq MSHR misses
system.cpu.icache.ReadReq_mshr_miss_latency::.cpu.inst     66762000                       # number of ReadReq MSHR miss cycles
system.cpu.icache.ReadReq_mshr_miss_latency::total     66762000                       # number of ReadReq MSHR miss cycles
system.cpu.icache.ReadReq_mshr_miss_rate::.cpu.inst     0.000070                       # mshr miss rate for ReadReq accesses
system.cpu.icache.ReadReq_mshr_miss_rate::total     0.000070                       # mshr miss rate for ReadReq accesses
system.cpu.icache.ReadReq_avg_mshr_miss_latency::.cpu.inst 98906.666667                       # average ReadReq mshr miss latency
system.cpu.icache.ReadReq_avg_mshr_miss_latency::total 98906.666667                       # average ReadReq mshr miss latency
system.cpu.icache.tags.pwrStateResidencyTicks::UNDEFINED 156088809000                       # Cumulative time (in ticks) in various power states
system.cpu.icache.tags.tagsinuse           548.496382                       # Cycle average of tags in use
system.cpu.icache.tags.total_refs             9663330                       # Total number of references to valid blocks.
system.cpu.icache.tags.sampled_refs               675                       # Sample count of references to valid blocks.
system.cpu.icache.tags.avg_refs          14316.044444                       # Average number of references to valid blocks.
system.cpu.icache.tags.warmup_cycle            108000                       # Cycle when the warmup percentage was hit.
system.cpu.icache.tags.occ_blocks::.cpu.inst   548.496382                       # Average occupied blocks per requestor
system.cpu.icache.tags.occ_percent::.cpu.inst     0.267820                       # Average percentage of cache occupancy
system.cpu.icache.tags.occ_percent::total     0.267820                       # Average percentage of cache occupancy
system.cpu.icache.tags.occ_task_id_blocks::1024          675                       # Occupied blocks per task id
system.cpu.icache.tags.age_task_id_blocks_1024::4          675                       # Occupied blocks per task id
system.cpu.icache.tags.occ_task_id_percent::1024     0.329590                       # Percentage of cache occupancy per task id
system.cpu.icache.tags.tag_accesses          38653995                       # Number of tag accesses
system.cpu.icache.tags.data_accesses         38653995                       # Number of data accesses
system.cpu.dtb.walker.pwrStateResidencyTicks::UNDEFINED 156088809000                       # Cumulative time (in ticks) in various power states
system.cpu.dtb.stage2_mmu.stage2_tlb.walker.pwrStateResidencyTicks::UNDEFINED 156088809000                       # Cumulative time (in ticks) in various power states
system.cpu.dcache.pwrStateResidencyTicks::UNDEFINED 156088809000                       # Cumulative time (in ticks) in various power states
system.cpu.dcache.demand_hits::.cpu.data     51510271                       # number of demand (read+write) hits
system.cpu.dcache.demand_hits::total         51510271                       # number of demand (read+write) hits
system.cpu.dcache.overall_hits::.cpu.data     51510779                       # number of overall hits
system.cpu.dcache.overall_hits::total        51510779                       # number of overall hits
system.cpu.dcache.demand_misses::.cpu.data       555698                       # number of demand (read+write) misses
system.cpu.dcache.demand_misses::total         555698                       # number of demand (read+write) misses
system.cpu.dcache.overall_misses::.cpu.data       563609                       # number of overall misses
system.cpu.dcache.overall_misses::total        563609                       # number of overall misses
system.cpu.dcache.demand_miss_latency::.cpu.data  28851360000                       # number of demand (read+write) miss cycles
system.cpu.dcache.demand_miss_latency::total  28851360000                       # number of demand (read+write) miss cycles
system.cpu.dcache.overall_miss_latency::.cpu.data  28851360000                       # number of overall miss cycles
system.cpu.dcache.overall_miss_latency::total  28851360000                       # number of overall miss cycles
system.cpu.dcache.demand_accesses::.cpu.data     52065969                       # number of demand (read+write) accesses
system.cpu.dcache.demand_accesses::total     52065969                       # number of demand (read+write) accesses
system.cpu.dcache.overall_accesses::.cpu.data     52074388                       # number of overall (read+write) accesses
system.cpu.dcache.overall_accesses::total     52074388                       # number of overall (read+write) accesses
system.cpu.dcache.demand_miss_rate::.cpu.data     0.010673                       # miss rate for demand accesses
system.cpu.dcache.demand_miss_rate::total     0.010673                       # miss rate for demand accesses
system.cpu.dcache.overall_miss_rate::.cpu.data     0.010823                       # miss rate for overall accesses
system.cpu.dcache.overall_miss_rate::total     0.010823                       # miss rate for overall accesses
system.cpu.dcache.demand_avg_miss_latency::.cpu.data 51919.135934                       # average overall miss latency
system.cpu.dcache.demand_avg_miss_latency::total 51919.135934                       # average overall miss latency
system.cpu.dcache.overall_avg_miss_latency::.cpu.data 51190.381985                       # average overall miss latency
system.cpu.dcache.overall_avg_miss_latency::total 51190.381985                       # average overall miss latency
system.cpu.dcache.blocked_cycles::no_mshrs        76799                       # number of cycles access was blocked
system.cpu.dcache.blocked_cycles::no_targets            0                       # number of cycles access was blocked
system.cpu.dcache.blocked::no_mshrs              1894                       # number of cycles access was blocked
system.cpu.dcache.blocked::no_targets               0                       # number of cycles access was blocked
system.cpu.dcache.avg_blocked_cycles::no_mshrs    40.548574                       # average number of cycles each access was blocked
system.cpu.dcache.avg_blocked_cycles::no_targets          nan                       # average number of cycles each access was blocked
system.cpu.dcache.writebacks::.writebacks       453956                       # number of writebacks
system.cpu.dcache.writebacks::total            453956                       # number of writebacks
system.cpu.dcache.demand_mshr_hits::.cpu.data        52231                       # number of demand (read+write) MSHR hits
system.cpu.dcache.demand_mshr_hits::total        52231                       # number of demand (read+write) MSHR hits
system.cpu.dcache.overall_mshr_hits::.cpu.data        52231                       # number of overall MSHR hits
system.cpu.dcache.overall_mshr_hits::total        52231                       # number of overall MSHR hits
system.cpu.dcache.demand_mshr_misses::.cpu.data       503467                       # number of demand (read+write) MSHR misses
system.cpu.dcache.demand_mshr_misses::total       503467                       # number of demand (read+write) MSHR misses
system.cpu.dcache.overall_mshr_misses::.cpu.data       511373                       # number of overall MSHR misses
system.cpu.dcache.overall_mshr_misses::total       511373                       # number of overall MSHR misses
system.cpu.dcache.demand_mshr_miss_latency::.cpu.data  26213276000                       # number of demand (read+write) MSHR miss cycles
system.cpu.dcache.demand_mshr_miss_latency::total  26213276000                       # number of demand (read+write) MSHR miss cycles
system.cpu.dcache.overall_mshr_miss_latency::.cpu.data  26883364999                       # number of overall MSHR miss cycles
system.cpu.dcache.overall_mshr_miss_latency::total  26883364999                       # number of overall MSHR miss cycles
system.cpu.dcache.demand_mshr_miss_rate::.cpu.data     0.009670                       # mshr miss rate for demand accesses
system.cpu.dcache.demand_mshr_miss_rate::total     0.009670                       # mshr miss rate for demand accesses
system.cpu.dcache.overall_mshr_miss_rate::.cpu.data     0.009820                       # mshr miss rate for overall accesses
system.cpu.dcache.overall_mshr_miss_rate::total     0.009820                       # mshr miss rate for overall accesses
system.cpu.dcache.demand_avg_mshr_miss_latency::.cpu.data 52065.529618                       # average overall mshr miss latency
system.cpu.dcache.demand_avg_mshr_miss_latency::total 52065.529618                       # average overall mshr miss latency
system.cpu.dcache.overall_avg_mshr_miss_latency::.cpu.data 52570.951143                       # average overall mshr miss latency
system.cpu.dcache.overall_avg_mshr_miss_latency::total 52570.951143                       # average overall mshr miss latency
system.cpu.dcache.replacements                 509324                       # number of replacements
system.cpu.dcache.ReadReq_hits::.cpu.data     40844846                       # number of ReadReq hits
system.cpu.dcache.ReadReq_hits::total        40844846                       # number of ReadReq hits
system.cpu.dcache.ReadReq_misses::.cpu.data       271022                       # number of ReadReq misses
system.cpu.dcache.ReadReq_misses::total        271022                       # number of ReadReq misses
system.cpu.dcache.ReadReq_miss_latency::.cpu.data  10452022000                       # number of ReadReq miss cycles
system.cpu.dcache.ReadReq_miss_latency::total  10452022000                       # number of ReadReq miss cycles
system.cpu.dcache.ReadReq_accesses::.cpu.data     41115868                       # number of ReadReq accesses(hits+misses)
system.cpu.dcache.ReadReq_accesses::total     41115868                       # number of ReadReq accesses(hits+misses)
system.cpu.dcache.ReadReq_miss_rate::.cpu.data     0.006592                       # miss rate for ReadReq accesses
system.cpu.dcache.ReadReq_miss_rate::total     0.006592                       # miss rate for ReadReq accesses
system.cpu.dcache.ReadReq_avg_miss_latency::.cpu.data 38565.216108                       # average ReadReq miss latency
system.cpu.dcache.ReadReq_avg_miss_latency::total 38565.216108                       # average ReadReq miss latency
system.cpu.dcache.ReadReq_mshr_hits::.cpu.data          425                       # number of ReadReq MSHR hits
system.cpu.dcache.ReadReq_mshr_hits::total          425                       # number of ReadReq MSHR hits
system.cpu.dcache.ReadReq_mshr_misses::.cpu.data       270597                       # number of ReadReq MSHR misses
system.cpu.dcache.ReadReq_mshr_misses::total       270597                       # number of ReadReq MSHR misses
system.cpu.dcache.ReadReq_mshr_miss_latency::.cpu.data   9889205000                       # number of ReadReq MSHR miss cycles
system.cpu.dcache.ReadReq_mshr_miss_latency::total   9889205000                       # number of ReadReq MSHR miss cycles
system.cpu.dcache.ReadReq_mshr_miss_rate::.cpu.data     0.006581                       # mshr miss rate for ReadReq accesses
system.cpu.dcache.ReadReq_mshr_miss_rate::total     0.006581                       # mshr miss rate for ReadReq accesses
system.cpu.dcache.ReadReq_avg_mshr_miss_latency::.cpu.data 36545.878188                       # average ReadReq mshr miss latency
system.cpu.dcache.ReadReq_avg_mshr_miss_latency::total 36545.878188                       # average ReadReq mshr miss latency
system.cpu.dcache.WriteReq_hits::.cpu.data     10665425                       # number of WriteReq hits
system.cpu.dcache.WriteReq_hits::total       10665425                       # number of WriteReq hits
system.cpu.dcache.WriteReq_misses::.cpu.data       284676                       # number of WriteReq misses
system.cpu.dcache.WriteReq_misses::total       284676                       # number of WriteReq misses
system.cpu.dcache.WriteReq_miss_latency::.cpu.data  18399338000                       # number of WriteReq miss cycles
system.cpu.dcache.WriteReq_miss_latency::total  18399338000                       # number of WriteReq miss cycles
system.cpu.dcache.WriteReq_accesses::.cpu.data     10950101                       # number of WriteReq accesses(hits+misses)
system.cpu.dcache.WriteReq_accesses::total     10950101                       # number of WriteReq accesses(hits+misses)
system.cpu.dcache.WriteReq_miss_rate::.cpu.data     0.025998                       # miss rate for WriteReq accesses
system.cpu.dcache.WriteReq_miss_rate::total     0.025998                       # miss rate for WriteReq accesses
system.cpu.dcache.WriteReq_avg_miss_latency::.cpu.data 64632.557715                       # average WriteReq miss latency
system.cpu.dcache.WriteReq_avg_miss_latency::total 64632.557715                       # average WriteReq miss latency
system.cpu.dcache.WriteReq_mshr_hits::.cpu.data        51806                       # number of WriteReq MSHR hits
system.cpu.dcache.WriteReq_mshr_hits::total        51806                       # number of WriteReq MSHR hits
system.cpu.dcache.WriteReq_mshr_misses::.cpu.data       232870                       # number of WriteReq MSHR misses
system.cpu.dcache.WriteReq_mshr_misses::total       232870                       # number of WriteReq MSHR misses
system.cpu.dcache.WriteReq_mshr_miss_latency::.cpu.data  16324071000                       # number of WriteReq MSHR miss cycles
system.cpu.dcache.WriteReq_mshr_miss_latency::total  16324071000                       # number of WriteReq MSHR miss cycles
system.cpu.dcache.WriteReq_mshr_miss_rate::.cpu.data     0.021266                       # mshr miss rate for WriteReq accesses
system.cpu.dcache.WriteReq_mshr_miss_rate::total     0.021266                       # mshr miss rate for WriteReq accesses
system.cpu.dcache.WriteReq_avg_mshr_miss_latency::.cpu.data 70099.501868                       # average WriteReq mshr miss latency
system.cpu.dcache.WriteReq_avg_mshr_miss_latency::total 70099.501868                       # average WriteReq mshr miss latency
system.cpu.dcache.SoftPFReq_hits::.cpu.data          508                       # number of SoftPFReq hits
system.cpu.dcache.SoftPFReq_hits::total           508                       # number of SoftPFReq hits
system.cpu.dcache.SoftPFReq_misses::.cpu.data         7911                       # number of SoftPFReq misses
system.cpu.dcache.SoftPFReq_misses::total         7911                       # number of SoftPFReq misses
system.cpu.dcache.SoftPFReq_accesses::.cpu.data         8419                       # number of SoftPFReq accesses(hits+misses)
system.cpu.dcache.SoftPFReq_accesses::total         8419                       # number of SoftPFReq accesses(hits+misses)
system.cpu.dcache.SoftPFReq_miss_rate::.cpu.data     0.939660                       # miss rate for SoftPFReq accesses
system.cpu.dcache.SoftPFReq_miss_rate::total     0.939660                       # miss rate for SoftPFReq accesses
system.cpu.dcache.SoftPFReq_mshr_misses::.cpu.data         7906                       # number of SoftPFReq MSHR misses
system.cpu.dcache.SoftPFReq_mshr_misses::total         7906                       # number of SoftPFReq MSHR misses
system.cpu.dcache.SoftPFReq_mshr_miss_latency::.cpu.data    670088999                       # number of SoftPFReq MSHR miss cycles
system.cpu.dcache.SoftPFReq_mshr_miss_latency::total    670088999                       # number of SoftPFReq MSHR miss cycles
system.cpu.dcache.SoftPFReq_mshr_miss_rate::.cpu.data     0.939066                       # mshr miss rate for SoftPFReq accesses
system.cpu.dcache.SoftPFReq_mshr_miss_rate::total     0.939066                       # mshr miss rate for SoftPFReq accesses
system.cpu.dcache.SoftPFReq_avg_mshr_miss_latency::.cpu.data 84757.019858                       # average SoftPFReq mshr miss latency
system.cpu.dcache.SoftPFReq_avg_mshr_miss_latency::total 84757.019858                       # average SoftPFReq mshr miss latency
system.cpu.dcache.LoadLockedReq_hits::.cpu.data           38                       # number of LoadLockedReq hits
system.cpu.dcache.LoadLockedReq_hits::total           38                       # number of LoadLockedReq hits
system.cpu.dcache.LoadLockedReq_accesses::.cpu.data           38                       # number of LoadLockedReq accesses(hits+misses)
system.cpu.dcache.LoadLockedReq_accesses::total           38                       # number of LoadLockedReq accesses(hits+misses)
system.cpu.dcache.StoreCondReq_hits::.cpu.data           38                       # number of StoreCondReq hits
system.cpu.dcache.StoreCondReq_hits::total           38                       # number of StoreCondReq hits
system.cpu.dcache.StoreCondReq_accesses::.cpu.data           38                       # number of StoreCondReq accesses(hits+misses)
system.cpu.dcache.StoreCondReq_accesses::total           38                       # number of StoreCondReq accesses(hits+misses)
system.cpu.dcache.tags.pwrStateResidencyTicks::UNDEFINED 156088809000                       # Cumulative time (in ticks) in various power states
system.cpu.dcache.tags.tagsinuse          2022.884554                       # Cycle average of tags in use
system.cpu.dcache.tags.total_refs            52022227                       # Total number of references to valid blocks.
system.cpu.dcache.tags.sampled_refs            511372                       # Sample count of references to valid blocks.
system.cpu.dcache.tags.avg_refs            101.730691                       # Average number of references to valid blocks.
system.cpu.dcache.tags.warmup_cycle            223000                       # Cycle when the warmup percentage was hit.
system.cpu.dcache.tags.occ_blocks::.cpu.data  2022.884554                       # Average occupied blocks per requestor
system.cpu.dcache.tags.occ_percent::.cpu.data     0.987737                       # Average percentage of cache occupancy
system.cpu.dcache.tags.occ_percent::total     0.987737                       # Average percentage of cache occupancy
system.cpu.dcache.tags.occ_task_id_blocks::1024         2048                       # Occupied blocks per task id
system.cpu.dcache.tags.age_task_id_blocks_1024::0          172                       # Occupied blocks per task id
system.cpu.dcache.tags.age_task_id_blocks_1024::1          344                       # Occupied blocks per task id
system.cpu.dcache.tags.age_task_id_blocks_1024::2         1423                       # Occupied blocks per task id
system.cpu.dcache.tags.age_task_id_blocks_1024::3          106                       # Occupied blocks per task id
system.cpu.dcache.tags.age_task_id_blocks_1024::4            3                       # Occupied blocks per task id
system.cpu.dcache.tags.occ_task_id_percent::1024            1                       # Percentage of cache occupancy per task id
system.cpu.dcache.tags.tag_accesses         208809228                       # Number of tag accesses
system.cpu.dcache.tags.data_accesses        208809228                       # Number of data accesses
system.cpu.itb.walker.pwrStateResidencyTicks::UNDEFINED 156088809000                       # Cumulative time (in ticks) in various power states
system.cpu.itb.stage2_mmu.stage2_tlb.walker.pwrStateResidencyTicks::UNDEFINED 156088809000                       # Cumulative time (in ticks) in various power states

---------- End Simulation Statistics   ----------
