
---------- Begin Simulation Statistics ----------
final_tick                               159431737000                       # Number of ticks from beginning of simulation (restored from checkpoints and never reset)
host_inst_rate                                 195903                       # Simulator instruction rate (inst/s)
host_mem_usage                                 694716                       # Number of bytes of host memory used
host_op_rate                                   196287                       # Simulator op (including micro ops) rate (op/s)
host_seconds                                   510.46                       # Real time elapsed on the host
host_tick_rate                              312330901                       # Simulator tick rate (ticks/s)
sim_freq                                 1000000000000                       # Frequency of simulated ticks
sim_insts                                   100000001                       # Number of instructions simulated
sim_ops                                     100196363                       # Number of ops (including micro ops) simulated
sim_seconds                                  0.159432                       # Number of seconds simulated
sim_ticks                                159431737000                       # Number of ticks simulated
system.cpu.branchPred.BTBCorrect                    0                       # Number of correct BTB predictions (this stat may not work properly.
system.cpu.branchPred.BTBHitPct             99.615869                       # BTB Hit Percentage
system.cpu.branchPred.BTBHits                 2095630                       # Number of BTB hits
system.cpu.branchPred.BTBLookups              2103711                       # Number of BTB lookups
system.cpu.branchPred.RASInCorrect                  5                       # Number of incorrect RAS predictions.
system.cpu.branchPred.condIncorrect             81389                       # Number of conditional branches incorrect
system.cpu.branchPred.condPredicted           3728208                       # Number of conditional branches predicted
system.cpu.branchPred.indirectHits                292                       # Number of indirect target hits.
system.cpu.branchPred.indirectLookups             999                       # Number of indirect predictor lookups.
system.cpu.branchPred.indirectMisses              707                       # Number of indirect misses.
system.cpu.branchPred.lookups                 4478351                       # Number of BP lookups
system.cpu.branchPred.usedRAS                   65366                       # Number of times the RAS was used to get a target.
system.cpu.branchPredindirectMispredicted          168                       # Number of mispredicted indirect branches.
system.cpu.committedInsts                   100000001                       # Number of instructions committed
system.cpu.committedOps                     100196363                       # Number of ops (including micro ops) committed
system.cpu.cpi                               1.594317                       # CPI: cycles per instruction
system.cpu.discardedOps                        190762                       # Number of ops (including micro ops) which were discarded before commit
system.cpu.dtb.accesses                             0                       # DTB accesses
system.cpu.dtb.align_faults                         0                       # Number of TLB faults due to alignment restrictions
system.cpu.dtb.domain_faults                        0                       # Number of TLB faults due to domain restrictions
system.cpu.dtb.flush_entries                        0                       # Number of entries that have been flushed from TLB
system.cpu.dtb.flush_tlb                            0                       # Number of times complete TLB was flushed
system.cpu.dtb.flush_tlb_asid                       0                       # Number of times TLB was flushed by ASID
system.cpu.dtb.flush_tlb_mva                        0                       # Number of times TLB was flushed by MVA
system.cpu.dtb.flush_tlb_mva_asid                   0                       # Number of times TLB was flushed by MVA & ASID
system.cpu.dtb.hits                                 0                       # DTB hits
system.cpu.dtb.inst_accesses                        0                       # ITB inst accesses
system.cpu.dtb.inst_hits                            0                       # ITB inst hits
system.cpu.dtb.inst_misses                          0                       # ITB inst misses
system.cpu.dtb.misses                               0                       # DTB misses
system.cpu.dtb.perms_faults                         0                       # Number of TLB faults due to permissions restrictions
system.cpu.dtb.prefetch_faults                      0                       # Number of TLB faults due to prefetch
system.cpu.dtb.read_accesses                        0                       # DTB read accesses
system.cpu.dtb.read_hits                            0                       # DTB read hits
system.cpu.dtb.read_misses                          0                       # DTB read misses
system.cpu.dtb.stage2_mmu.stage2_tlb.accesses            0                       # DTB accesses
system.cpu.dtb.stage2_mmu.stage2_tlb.align_faults            0                       # Number of TLB faults due to alignment restrictions
system.cpu.dtb.stage2_mmu.stage2_tlb.domain_faults            0                       # Number of TLB faults due to domain restrictions
system.cpu.dtb.stage2_mmu.stage2_tlb.flush_entries            0                       # Number of entries that have been flushed from TLB
system.cpu.dtb.stage2_mmu.stage2_tlb.flush_tlb            0                       # Number of times complete TLB was flushed
system.cpu.dtb.stage2_mmu.stage2_tlb.flush_tlb_asid            0                       # Number of times TLB was flushed by ASID
system.cpu.dtb.stage2_mmu.stage2_tlb.flush_tlb_mva            0                       # Number of times TLB was flushed by MVA
system.cpu.dtb.stage2_mmu.stage2_tlb.flush_tlb_mva_asid            0                       # Number of times TLB was flushed by MVA & ASID
system.cpu.dtb.stage2_mmu.stage2_tlb.hits            0                       # DTB hits
system.cpu.dtb.stage2_mmu.stage2_tlb.inst_accesses            0                       # ITB inst accesses
system.cpu.dtb.stage2_mmu.stage2_tlb.inst_hits            0                       # ITB inst hits
system.cpu.dtb.stage2_mmu.stage2_tlb.inst_misses            0                       # ITB inst misses
system.cpu.dtb.stage2_mmu.stage2_tlb.misses            0                       # DTB misses
system.cpu.dtb.stage2_mmu.stage2_tlb.perms_faults            0                       # Number of TLB faults due to permissions restrictions
system.cpu.dtb.stage2_mmu.stage2_tlb.prefetch_faults            0                       # Number of TLB faults due to prefetch
system.cpu.dtb.stage2_mmu.stage2_tlb.read_accesses            0                       # DTB read accesses
system.cpu.dtb.stage2_mmu.stage2_tlb.read_hits            0                       # DTB read hits
system.cpu.dtb.stage2_mmu.stage2_tlb.read_misses            0                       # DTB read misses
system.cpu.dtb.stage2_mmu.stage2_tlb.walker.walkRequestOrigin_Requested::Data            0                       # Table walker requests started/completed, data/inst
system.cpu.dtb.stage2_mmu.stage2_tlb.walker.walkRequestOrigin_Requested::Inst            0                       # Table walker requests started/completed, data/inst
system.cpu.dtb.stage2_mmu.stage2_tlb.walker.walkRequestOrigin_Requested::total            0                       # Table walker requests started/completed, data/inst
system.cpu.dtb.stage2_mmu.stage2_tlb.walker.walkRequestOrigin_Completed::Data            0                       # Table walker requests started/completed, data/inst
system.cpu.dtb.stage2_mmu.stage2_tlb.walker.walkRequestOrigin_Completed::Inst            0                       # Table walker requests started/completed, data/inst
system.cpu.dtb.stage2_mmu.stage2_tlb.walker.walkRequestOrigin_Completed::total            0                       # Table walker requests started/completed, data/inst
system.cpu.dtb.stage2_mmu.stage2_tlb.walker.walkRequestOrigin::total            0                       # Table walker requests started/completed, data/inst
system.cpu.dtb.stage2_mmu.stage2_tlb.walker.walks            0                       # Table walker walks requested
system.cpu.dtb.stage2_mmu.stage2_tlb.write_accesses            0                       # DTB write accesses
system.cpu.dtb.stage2_mmu.stage2_tlb.write_hits            0                       # DTB write hits
system.cpu.dtb.stage2_mmu.stage2_tlb.write_misses            0                       # DTB write misses
system.cpu.dtb.walker.walkRequestOrigin_Requested::Data            0                       # Table walker requests started/completed, data/inst
system.cpu.dtb.walker.walkRequestOrigin_Requested::Inst            0                       # Table walker requests started/completed, data/inst
system.cpu.dtb.walker.walkRequestOrigin_Requested::total            0                       # Table walker requests started/completed, data/inst
system.cpu.dtb.walker.walkRequestOrigin_Completed::Data            0                       # Table walker requests started/completed, data/inst
system.cpu.dtb.walker.walkRequestOrigin_Completed::Inst            0                       # Table walker requests started/completed, data/inst
system.cpu.dtb.walker.walkRequestOrigin_Completed::total            0                       # Table walker requests started/completed, data/inst
system.cpu.dtb.walker.walkRequestOrigin::total            0                       # Table walker requests started/completed, data/inst
system.cpu.dtb.walker.walks                         0                       # Table walker walks requested
system.cpu.dtb.write_accesses                       0                       # DTB write accesses
system.cpu.dtb.write_hits                           0                       # DTB write hits
system.cpu.dtb.write_misses                         0                       # DTB write misses
system.cpu.fetch2.amo_instructions                  0                       # Number of memory atomic instructions successfully decoded
system.cpu.fetch2.fp_instructions                   0                       # Number of floating point instructions successfully decoded
system.cpu.fetch2.int_instructions           42610715                       # Number of integer instructions successfully decoded
system.cpu.fetch2.load_instructions          43403420                       # Number of memory load instructions successfully decoded
system.cpu.fetch2.store_instructions         11001615                       # Number of memory store instructions successfully decoded
system.cpu.fetch2.vec_instructions                  0                       # Number of SIMD instructions successfully decoded
system.cpu.idleCycles                        26990186                       # Total number of cycles that the object has spent stopped
system.cpu.ipc                               0.627228                       # IPC: instructions per cycle
system.cpu.itb.accesses                             0                       # DTB accesses
system.cpu.itb.align_faults                         0                       # Number of TLB faults due to alignment restrictions
system.cpu.itb.domain_faults                        0                       # Number of TLB faults due to domain restrictions
system.cpu.itb.flush_entries                        0                       # Number of entries that have been flushed from TLB
system.cpu.itb.flush_tlb                            0                       # Number of times complete TLB was flushed
system.cpu.itb.flush_tlb_asid                       0                       # Number of times TLB was flushed by ASID
system.cpu.itb.flush_tlb_mva                        0                       # Number of times TLB was flushed by MVA
system.cpu.itb.flush_tlb_mva_asid                   0                       # Number of times TLB was flushed by MVA & ASID
system.cpu.itb.hits                                 0                       # DTB hits
system.cpu.itb.inst_accesses                        0                       # ITB inst accesses
system.cpu.itb.inst_hits                            0                       # ITB inst hits
system.cpu.itb.inst_misses                          0                       # ITB inst misses
system.cpu.itb.misses                               0                       # DTB misses
system.cpu.itb.perms_faults                         0                       # Number of TLB faults due to permissions restrictions
system.cpu.itb.prefetch_faults                      0                       # Number of TLB faults due to prefetch
system.cpu.itb.read_accesses                        0                       # DTB read accesses
system.cpu.itb.read_hits                            0                       # DTB read hits
system.cpu.itb.read_misses                          0                       # DTB read misses
system.cpu.itb.stage2_mmu.stage2_tlb.accesses            0                       # DTB accesses
system.cpu.itb.stage2_mmu.stage2_tlb.align_faults            0                       # Number of TLB faults due to alignment restrictions
system.cpu.itb.stage2_mmu.stage2_tlb.domain_faults            0                       # Number of TLB faults due to domain restrictions
system.cpu.itb.stage2_mmu.stage2_tlb.flush_entries            0                       # Number of entries that have been flushed from TLB
system.cpu.itb.stage2_mmu.stage2_tlb.flush_tlb            0                       # Number of times complete TLB was flushed
system.cpu.itb.stage2_mmu.stage2_tlb.flush_tlb_asid            0                       # Number of times TLB was flushed by ASID
system.cpu.itb.stage2_mmu.stage2_tlb.flush_tlb_mva            0                       # Number of times TLB was flushed by MVA
system.cpu.itb.stage2_mmu.stage2_tlb.flush_tlb_mva_asid            0                       # Number of times TLB was flushed by MVA & ASID
system.cpu.itb.stage2_mmu.stage2_tlb.hits            0                       # DTB hits
system.cpu.itb.stage2_mmu.stage2_tlb.inst_accesses            0                       # ITB inst accesses
system.cpu.itb.stage2_mmu.stage2_tlb.inst_hits            0                       # ITB inst hits
system.cpu.itb.stage2_mmu.stage2_tlb.inst_misses            0                       # ITB inst misses
system.cpu.itb.stage2_mmu.stage2_tlb.misses            0                       # DTB misses
system.cpu.itb.stage2_mmu.stage2_tlb.perms_faults            0                       # Number of TLB faults due to permissions restrictions
system.cpu.itb.stage2_mmu.stage2_tlb.prefetch_faults            0                       # Number of TLB faults due to prefetch
system.cpu.itb.stage2_mmu.stage2_tlb.read_accesses            0                       # DTB read accesses
system.cpu.itb.stage2_mmu.stage2_tlb.read_hits            0                       # DTB read hits
system.cpu.itb.stage2_mmu.stage2_tlb.read_misses            0                       # DTB read misses
system.cpu.itb.stage2_mmu.stage2_tlb.walker.walkRequestOrigin_Requested::Data            0                       # Table walker requests started/completed, data/inst
system.cpu.itb.stage2_mmu.stage2_tlb.walker.walkRequestOrigin_Requested::Inst            0                       # Table walker requests started/completed, data/inst
system.cpu.itb.stage2_mmu.stage2_tlb.walker.walkRequestOrigin_Requested::total            0                       # Table walker requests started/completed, data/inst
system.cpu.itb.stage2_mmu.stage2_tlb.walker.walkRequestOrigin_Completed::Data            0                       # Table walker requests started/completed, data/inst
system.cpu.itb.stage2_mmu.stage2_tlb.walker.walkRequestOrigin_Completed::Inst            0                       # Table walker requests started/completed, data/inst
system.cpu.itb.stage2_mmu.stage2_tlb.walker.walkRequestOrigin_Completed::total            0                       # Table walker requests started/completed, data/inst
system.cpu.itb.stage2_mmu.stage2_tlb.walker.walkRequestOrigin::total            0                       # Table walker requests started/completed, data/inst
system.cpu.itb.stage2_mmu.stage2_tlb.walker.walks            0                       # Table walker walks requested
system.cpu.itb.stage2_mmu.stage2_tlb.write_accesses            0                       # DTB write accesses
system.cpu.itb.stage2_mmu.stage2_tlb.write_hits            0                       # DTB write hits
system.cpu.itb.stage2_mmu.stage2_tlb.write_misses            0                       # DTB write misses
system.cpu.itb.walker.walkRequestOrigin_Requested::Data            0                       # Table walker requests started/completed, data/inst
system.cpu.itb.walker.walkRequestOrigin_Requested::Inst            0                       # Table walker requests started/completed, data/inst
system.cpu.itb.walker.walkRequestOrigin_Requested::total            0                       # Table walker requests started/completed, data/inst
system.cpu.itb.walker.walkRequestOrigin_Completed::Data            0                       # Table walker requests started/completed, data/inst
system.cpu.itb.walker.walkRequestOrigin_Completed::Inst            0                       # Table walker requests started/completed, data/inst
system.cpu.itb.walker.walkRequestOrigin_Completed::total            0                       # Table walker requests started/completed, data/inst
system.cpu.itb.walker.walkRequestOrigin::total            0                       # Table walker requests started/completed, data/inst
system.cpu.itb.walker.walks                         0                       # Table walker walks requested
system.cpu.itb.write_accesses                       0                       # DTB write accesses
system.cpu.itb.write_hits                           0                       # DTB write hits
system.cpu.itb.write_misses                         0                       # DTB write misses
system.cpu.numCycles                        159431737                       # number of cpu cycles simulated
system.cpu.numFetchSuspends                         0                       # Number of times Execute suspended instruction fetching
system.cpu.numWorkItemsCompleted                    0                       # number of work items this cpu completed
system.cpu.numWorkItemsStarted                      0                       # number of work items this cpu started
system.cpu.op_class_0::No_OpClass                   0      0.00%      0.00% # Class of committed instruction
system.cpu.op_class_0::IntAlu                46531400     46.44%     46.44% # Class of committed instruction
system.cpu.op_class_0::IntMult                  20720      0.02%     46.46% # Class of committed instruction
system.cpu.op_class_0::IntDiv                       0      0.00%     46.46% # Class of committed instruction
system.cpu.op_class_0::FloatAdd                     0      0.00%     46.46% # Class of committed instruction
system.cpu.op_class_0::FloatCmp                     0      0.00%     46.46% # Class of committed instruction
system.cpu.op_class_0::FloatCvt                     0      0.00%     46.46% # Class of committed instruction
system.cpu.op_class_0::FloatMult                    0      0.00%     46.46% # Class of committed instruction
system.cpu.op_class_0::FloatMultAcc                 0      0.00%     46.46% # Class of committed instruction
system.cpu.op_class_0::FloatDiv                     0      0.00%     46.46% # Class of committed instruction
system.cpu.op_class_0::FloatMisc                    0      0.00%     46.46% # Class of committed instruction
system.cpu.op_class_0::FloatSqrt                    0      0.00%     46.46% # Class of committed instruction
system.cpu.op_class_0::SimdAdd                      0      0.00%     46.46% # Class of committed instruction
system.cpu.op_class_0::SimdAddAcc                   0      0.00%     46.46% # Class of committed instruction
system.cpu.op_class_0::SimdAlu                      0      0.00%     46.46% # Class of committed instruction
system.cpu.op_class_0::SimdCmp                      0      0.00%     46.46% # Class of committed instruction
system.cpu.op_class_0::SimdCvt                      0      0.00%     46.46% # Class of committed instruction
system.cpu.op_class_0::SimdMisc                     0      0.00%     46.46% # Class of committed instruction
system.cpu.op_class_0::SimdMult                     0      0.00%     46.46% # Class of committed instruction
system.cpu.op_class_0::SimdMultAcc                  0      0.00%     46.46% # Class of committed instruction
system.cpu.op_class_0::SimdShift                    0      0.00%     46.46% # Class of committed instruction
system.cpu.op_class_0::SimdShiftAcc                 0      0.00%     46.46% # Class of committed instruction
system.cpu.op_class_0::SimdDiv                      0      0.00%     46.46% # Class of committed instruction
system.cpu.op_class_0::SimdSqrt                     0      0.00%     46.46% # Class of committed instruction
system.cpu.op_class_0::SimdFloatAdd                 0      0.00%     46.46% # Class of committed instruction
system.cpu.op_class_0::SimdFloatAlu                 0      0.00%     46.46% # Class of committed instruction
system.cpu.op_class_0::SimdFloatCmp                 0      0.00%     46.46% # Class of committed instruction
system.cpu.op_class_0::SimdFloatCvt                 0      0.00%     46.46% # Class of committed instruction
system.cpu.op_class_0::SimdFloatDiv                 0      0.00%     46.46% # Class of committed instruction
system.cpu.op_class_0::SimdFloatMisc               18      0.00%     46.46% # Class of committed instruction
system.cpu.op_class_0::SimdFloatMult                0      0.00%     46.46% # Class of committed instruction
system.cpu.op_class_0::SimdFloatMultAcc             0      0.00%     46.46% # Class of committed instruction
system.cpu.op_class_0::SimdFloatSqrt                0      0.00%     46.46% # Class of committed instruction
system.cpu.op_class_0::SimdReduceAdd                0      0.00%     46.46% # Class of committed instruction
system.cpu.op_class_0::SimdReduceAlu                0      0.00%     46.46% # Class of committed instruction
system.cpu.op_class_0::SimdReduceCmp                0      0.00%     46.46% # Class of committed instruction
system.cpu.op_class_0::SimdFloatReduceAdd            0      0.00%     46.46% # Class of committed instruction
system.cpu.op_class_0::SimdFloatReduceCmp            0      0.00%     46.46% # Class of committed instruction
system.cpu.op_class_0::SimdAes                      0      0.00%     46.46% # Class of committed instruction
system.cpu.op_class_0::SimdAesMix                   0      0.00%     46.46% # Class of committed instruction
system.cpu.op_class_0::SimdSha1Hash                 0      0.00%     46.46% # Class of committed instruction
system.cpu.op_class_0::SimdSha1Hash2                0      0.00%     46.46% # Class of committed instruction
system.cpu.op_class_0::SimdSha256Hash               0      0.00%     46.46% # Class of committed instruction
system.cpu.op_class_0::SimdSha256Hash2              0      0.00%     46.46% # Class of committed instruction
system.cpu.op_class_0::SimdShaSigma2                0      0.00%     46.46% # Class of committed instruction
system.cpu.op_class_0::SimdShaSigma3                0      0.00%     46.46% # Class of committed instruction
system.cpu.op_class_0::SimdPredAlu                  0      0.00%     46.46% # Class of committed instruction
system.cpu.op_class_0::MemRead               42693601     42.61%     89.07% # Class of committed instruction
system.cpu.op_class_0::MemWrite              10950624     10.93%    100.00% # Class of committed instruction
system.cpu.op_class_0::FloatMemRead                 0      0.00%    100.00% # Class of committed instruction
system.cpu.op_class_0::FloatMemWrite                0      0.00%    100.00% # Class of committed instruction
system.cpu.op_class_0::IprAccess                    0      0.00%    100.00% # Class of committed instruction
system.cpu.op_class_0::InstPrefetch                 0      0.00%    100.00% # Class of committed instruction
system.cpu.op_class_0::total                100196363                       # Class of committed instruction
system.cpu.tickCycles                       132441551                       # Number of cycles that the object actually ticked
system.cpu.workload.numSyscalls                    84                       # Number of system calls
system.membus.snoop_filter.hit_multi_requests            0                       # Number of requests hitting in the snoop filter with multiple (>1) holders of the requested data.
system.membus.snoop_filter.hit_multi_snoops            0                       # Number of snoops hitting in the snoop filter with multiple (>1) holders of the requested data.
system.membus.snoop_filter.hit_single_requests        76517                       # Number of requests hitting in the snoop filter with a single holder of the requested data.
system.membus.snoop_filter.hit_single_snoops            0                       # Number of snoops hitting in the snoop filter with a single holder of the requested data.
system.membus.snoop_filter.tot_requests        186153                       # Total number of requests made to the snoop filter.
system.membus.snoop_filter.tot_snoops               0                       # Total number of snoops made to the snoop filter.
system.tol2bus.snoop_filter.hit_multi_requests          678                       # Number of requests hitting in the snoop filter with multiple (>1) holders of the requested data.
system.tol2bus.snoop_filter.hit_multi_snoops            0                       # Number of snoops hitting in the snoop filter with multiple (>1) holders of the requested data.
system.tol2bus.snoop_filter.hit_single_requests       664999                       # Number of requests hitting in the snoop filter with a single holder of the requested data.
system.tol2bus.snoop_filter.hit_single_snoops          380                       # Number of snoops hitting in the snoop filter with a single holder of the requested data.
system.tol2bus.snoop_filter.tot_requests      1331440                       # Total number of requests made to the snoop filter.
system.tol2bus.snoop_filter.tot_snoops            380                       # Total number of snoops made to the snoop filter.
system.membus.pwrStateResidencyTicks::UNDEFINED 159431737000                       # Cumulative time (in ticks) in various power states
system.membus.trans_dist::ReadResp              30394                       # Transaction distribution
system.membus.trans_dist::WritebackDirty        48822                       # Transaction distribution
system.membus.trans_dist::CleanEvict            27685                       # Transaction distribution
system.membus.trans_dist::ReadExReq             79252                       # Transaction distribution
system.membus.trans_dist::ReadExResp            79252                       # Transaction distribution
system.membus.trans_dist::ReadSharedReq         30394                       # Transaction distribution
system.membus.pkt_count_system.l2.mem_side::system.mem_ctrls.port       295799                       # Packet count per connected master and slave (bytes)
system.membus.pkt_count::total                 295799                       # Packet count per connected master and slave (bytes)
system.membus.pkt_size_system.l2.mem_side::system.mem_ctrls.port     20283904                       # Cumulative packet size per connected master and slave (bytes)
system.membus.pkt_size::total                20283904                       # Cumulative packet size per connected master and slave (bytes)
system.membus.snoops                                0                       # Total snoops (count)
system.membus.snoopTraffic                          0                       # Total snoop traffic (bytes)
system.membus.snoop_fanout::samples            109646                       # Request fanout histogram
system.membus.snoop_fanout::mean                    0                       # Request fanout histogram
system.membus.snoop_fanout::stdev                   0                       # Request fanout histogram
system.membus.snoop_fanout::underflows              0      0.00%      0.00% # Request fanout histogram
system.membus.snoop_fanout::0                  109646    100.00%    100.00% # Request fanout histogram
system.membus.snoop_fanout::1                       0      0.00%    100.00% # Request fanout histogram
system.membus.snoop_fanout::overflows               0      0.00%    100.00% # Request fanout histogram
system.membus.snoop_fanout::min_value               0                       # Request fanout histogram
system.membus.snoop_fanout::max_value               0                       # Request fanout histogram
system.membus.snoop_fanout::total              109646                       # Request fanout histogram
system.membus.respLayer1.occupancy         1023364750                       # Layer occupancy (ticks)
system.membus.respLayer1.utilization              0.6                       # Layer utilization (%)
system.membus.reqLayer0.occupancy           576729000                       # Layer occupancy (ticks)
system.membus.reqLayer0.utilization               0.4                       # Layer utilization (%)
system.tol2bus.pwrStateResidencyTicks::UNDEFINED 159431737000                       # Cumulative time (in ticks) in various power states
system.tol2bus.trans_dist::ReadResp            398216                       # Transaction distribution
system.tol2bus.trans_dist::WritebackDirty       675006                       # Transaction distribution
system.tol2bus.trans_dist::WritebackClean            1                       # Transaction distribution
system.tol2bus.trans_dist::CleanEvict           66877                       # Transaction distribution
system.tol2bus.trans_dist::ReadExReq           268226                       # Transaction distribution
system.tol2bus.trans_dist::ReadExResp          268225                       # Transaction distribution
system.tol2bus.trans_dist::ReadCleanReq           420                       # Transaction distribution
system.tol2bus.trans_dist::ReadSharedReq       397796                       # Transaction distribution
system.tol2bus.pkt_count_system.cpu.icache.mem_side::system.l2.cpu_side          841                       # Packet count per connected master and slave (bytes)
system.tol2bus.pkt_count_system.cpu.dcache.mem_side::system.l2.cpu_side      1997040                       # Packet count per connected master and slave (bytes)
system.tol2bus.pkt_count::total               1997881                       # Packet count per connected master and slave (bytes)
system.tol2bus.pkt_size_system.cpu.icache.mem_side::system.l2.cpu_side        53888                       # Cumulative packet size per connected master and slave (bytes)
system.tol2bus.pkt_size_system.cpu.dcache.mem_side::system.l2.cpu_side    165402240                       # Cumulative packet size per connected master and slave (bytes)
system.tol2bus.pkt_size::total              165456128                       # Cumulative packet size per connected master and slave (bytes)
system.tol2bus.snoops                           76886                       # Total snoops (count)
system.tol2bus.snoopTraffic                   6249216                       # Total snoop traffic (bytes)
system.tol2bus.snoop_fanout::samples           743328                       # Request fanout histogram
system.tol2bus.snoop_fanout::mean            0.001425                       # Request fanout histogram
system.tol2bus.snoop_fanout::stdev           0.037718                       # Request fanout histogram
system.tol2bus.snoop_fanout::underflows             0      0.00%      0.00% # Request fanout histogram
system.tol2bus.snoop_fanout::0                 742269     99.86%     99.86% # Request fanout histogram
system.tol2bus.snoop_fanout::1                   1059      0.14%    100.00% # Request fanout histogram
system.tol2bus.snoop_fanout::2                      0      0.00%    100.00% # Request fanout histogram
system.tol2bus.snoop_fanout::overflows              0      0.00%    100.00% # Request fanout histogram
system.tol2bus.snoop_fanout::min_value              0                       # Request fanout histogram
system.tol2bus.snoop_fanout::max_value              1                       # Request fanout histogram
system.tol2bus.snoop_fanout::total             743328                       # Request fanout histogram
system.tol2bus.reqLayer0.occupancy         3836180000                       # Layer occupancy (ticks)
system.tol2bus.reqLayer0.utilization              2.4                       # Layer utilization (%)
system.tol2bus.respLayer1.occupancy        3330109995                       # Layer occupancy (ticks)
system.tol2bus.respLayer1.utilization             2.1                       # Layer utilization (%)
system.tol2bus.respLayer0.occupancy           2100000                       # Layer occupancy (ticks)
system.tol2bus.respLayer0.utilization             0.0                       # Layer utilization (%)
system.voltage_domain.voltage                       1                       # Voltage in Volts
system.clk_domain.clock                          1000                       # Clock period in ticks
system.l2.pwrStateResidencyTicks::UNDEFINED 159431737000                       # Cumulative time (in ticks) in various power states
system.l2.demand_hits::.cpu.inst                   16                       # number of demand (read+write) hits
system.l2.demand_hits::.cpu.data               556775                       # number of demand (read+write) hits
system.l2.demand_hits::total                   556791                       # number of demand (read+write) hits
system.l2.overall_hits::.cpu.inst                  16                       # number of overall hits
system.l2.overall_hits::.cpu.data              556775                       # number of overall hits
system.l2.overall_hits::total                  556791                       # number of overall hits
system.l2.demand_misses::.cpu.inst                404                       # number of demand (read+write) misses
system.l2.demand_misses::.cpu.data             109247                       # number of demand (read+write) misses
system.l2.demand_misses::total                 109651                       # number of demand (read+write) misses
system.l2.overall_misses::.cpu.inst               404                       # number of overall misses
system.l2.overall_misses::.cpu.data            109247                       # number of overall misses
system.l2.overall_misses::total                109651                       # number of overall misses
system.l2.demand_miss_latency::.cpu.inst     42943000                       # number of demand (read+write) miss cycles
system.l2.demand_miss_latency::.cpu.data  11898752000                       # number of demand (read+write) miss cycles
system.l2.demand_miss_latency::total      11941695000                       # number of demand (read+write) miss cycles
system.l2.overall_miss_latency::.cpu.inst     42943000                       # number of overall miss cycles
system.l2.overall_miss_latency::.cpu.data  11898752000                       # number of overall miss cycles
system.l2.overall_miss_latency::total     11941695000                       # number of overall miss cycles
system.l2.demand_accesses::.cpu.inst              420                       # number of demand (read+write) accesses
system.l2.demand_accesses::.cpu.data           666022                       # number of demand (read+write) accesses
system.l2.demand_accesses::total               666442                       # number of demand (read+write) accesses
system.l2.overall_accesses::.cpu.inst             420                       # number of overall (read+write) accesses
system.l2.overall_accesses::.cpu.data          666022                       # number of overall (read+write) accesses
system.l2.overall_accesses::total              666442                       # number of overall (read+write) accesses
system.l2.demand_miss_rate::.cpu.inst        0.961905                       # miss rate for demand accesses
system.l2.demand_miss_rate::.cpu.data        0.164029                       # miss rate for demand accesses
system.l2.demand_miss_rate::total            0.164532                       # miss rate for demand accesses
system.l2.overall_miss_rate::.cpu.inst       0.961905                       # miss rate for overall accesses
system.l2.overall_miss_rate::.cpu.data       0.164029                       # miss rate for overall accesses
system.l2.overall_miss_rate::total           0.164532                       # miss rate for overall accesses
system.l2.demand_avg_miss_latency::.cpu.inst 106294.554455                       # average overall miss latency
system.l2.demand_avg_miss_latency::.cpu.data 108916.052615                       # average overall miss latency
system.l2.demand_avg_miss_latency::total 108906.393923                       # average overall miss latency
system.l2.overall_avg_miss_latency::.cpu.inst 106294.554455                       # average overall miss latency
system.l2.overall_avg_miss_latency::.cpu.data 108916.052615                       # average overall miss latency
system.l2.overall_avg_miss_latency::total 108906.393923                       # average overall miss latency
system.l2.blocked_cycles::no_mshrs                  0                       # number of cycles access was blocked
system.l2.blocked_cycles::no_targets                0                       # number of cycles access was blocked
system.l2.blocked::no_mshrs                         0                       # number of cycles access was blocked
system.l2.blocked::no_targets                       0                       # number of cycles access was blocked
system.l2.avg_blocked_cycles::no_mshrs            nan                       # average number of cycles each access was blocked
system.l2.avg_blocked_cycles::no_targets          nan                       # average number of cycles each access was blocked
system.l2.writebacks::.writebacks               48822                       # number of writebacks
system.l2.writebacks::total                     48822                       # number of writebacks
system.l2.demand_mshr_hits::.cpu.data               5                       # number of demand (read+write) MSHR hits
system.l2.demand_mshr_hits::total                   5                       # number of demand (read+write) MSHR hits
system.l2.overall_mshr_hits::.cpu.data              5                       # number of overall MSHR hits
system.l2.overall_mshr_hits::total                  5                       # number of overall MSHR hits
system.l2.demand_mshr_misses::.cpu.inst           404                       # number of demand (read+write) MSHR misses
system.l2.demand_mshr_misses::.cpu.data        109242                       # number of demand (read+write) MSHR misses
system.l2.demand_mshr_misses::total            109646                       # number of demand (read+write) MSHR misses
system.l2.overall_mshr_misses::.cpu.inst          404                       # number of overall MSHR misses
system.l2.overall_mshr_misses::.cpu.data       109242                       # number of overall MSHR misses
system.l2.overall_mshr_misses::total           109646                       # number of overall MSHR misses
system.l2.demand_mshr_miss_latency::.cpu.inst     34863000                       # number of demand (read+write) MSHR miss cycles
system.l2.demand_mshr_miss_latency::.cpu.data   9713461000                       # number of demand (read+write) MSHR miss cycles
system.l2.demand_mshr_miss_latency::total   9748324000                       # number of demand (read+write) MSHR miss cycles
system.l2.overall_mshr_miss_latency::.cpu.inst     34863000                       # number of overall MSHR miss cycles
system.l2.overall_mshr_miss_latency::.cpu.data   9713461000                       # number of overall MSHR miss cycles
system.l2.overall_mshr_miss_latency::total   9748324000                       # number of overall MSHR miss cycles
system.l2.demand_mshr_miss_rate::.cpu.inst     0.961905                       # mshr miss rate for demand accesses
system.l2.demand_mshr_miss_rate::.cpu.data     0.164022                       # mshr miss rate for demand accesses
system.l2.demand_mshr_miss_rate::total       0.164524                       # mshr miss rate for demand accesses
system.l2.overall_mshr_miss_rate::.cpu.inst     0.961905                       # mshr miss rate for overall accesses
system.l2.overall_mshr_miss_rate::.cpu.data     0.164022                       # mshr miss rate for overall accesses
system.l2.overall_mshr_miss_rate::total      0.164524                       # mshr miss rate for overall accesses
system.l2.demand_avg_mshr_miss_latency::.cpu.inst 86294.554455                       # average overall mshr miss latency
system.l2.demand_avg_mshr_miss_latency::.cpu.data 88916.909247                       # average overall mshr miss latency
system.l2.demand_avg_mshr_miss_latency::total 88907.246958                       # average overall mshr miss latency
system.l2.overall_avg_mshr_miss_latency::.cpu.inst 86294.554455                       # average overall mshr miss latency
system.l2.overall_avg_mshr_miss_latency::.cpu.data 88916.909247                       # average overall mshr miss latency
system.l2.overall_avg_mshr_miss_latency::total 88907.246958                       # average overall mshr miss latency
system.l2.replacements                          76886                       # number of replacements
system.l2.WritebackDirty_hits::.writebacks       626184                       # number of WritebackDirty hits
system.l2.WritebackDirty_hits::total           626184                       # number of WritebackDirty hits
system.l2.WritebackDirty_accesses::.writebacks       626184                       # number of WritebackDirty accesses(hits+misses)
system.l2.WritebackDirty_accesses::total       626184                       # number of WritebackDirty accesses(hits+misses)
system.l2.WritebackClean_hits::.writebacks            1                       # number of WritebackClean hits
system.l2.WritebackClean_hits::total                1                       # number of WritebackClean hits
system.l2.WritebackClean_accesses::.writebacks            1                       # number of WritebackClean accesses(hits+misses)
system.l2.WritebackClean_accesses::total            1                       # number of WritebackClean accesses(hits+misses)
system.l2.CleanEvict_mshr_misses::.writebacks            1                       # number of CleanEvict MSHR misses
system.l2.CleanEvict_mshr_misses::total             1                       # number of CleanEvict MSHR misses
system.l2.CleanEvict_mshr_miss_rate::.writebacks          inf                       # mshr miss rate for CleanEvict accesses
system.l2.CleanEvict_mshr_miss_rate::total          inf                       # mshr miss rate for CleanEvict accesses
system.l2.ReadExReq_hits::.cpu.data            188974                       # number of ReadExReq hits
system.l2.ReadExReq_hits::total                188974                       # number of ReadExReq hits
system.l2.ReadExReq_misses::.cpu.data           79252                       # number of ReadExReq misses
system.l2.ReadExReq_misses::total               79252                       # number of ReadExReq misses
system.l2.ReadExReq_miss_latency::.cpu.data   8800142000                       # number of ReadExReq miss cycles
system.l2.ReadExReq_miss_latency::total    8800142000                       # number of ReadExReq miss cycles
system.l2.ReadExReq_accesses::.cpu.data        268226                       # number of ReadExReq accesses(hits+misses)
system.l2.ReadExReq_accesses::total            268226                       # number of ReadExReq accesses(hits+misses)
system.l2.ReadExReq_miss_rate::.cpu.data     0.295467                       # miss rate for ReadExReq accesses
system.l2.ReadExReq_miss_rate::total         0.295467                       # miss rate for ReadExReq accesses
system.l2.ReadExReq_avg_miss_latency::.cpu.data 111039.998991                       # average ReadExReq miss latency
system.l2.ReadExReq_avg_miss_latency::total 111039.998991                       # average ReadExReq miss latency
system.l2.ReadExReq_mshr_misses::.cpu.data        79252                       # number of ReadExReq MSHR misses
system.l2.ReadExReq_mshr_misses::total          79252                       # number of ReadExReq MSHR misses
system.l2.ReadExReq_mshr_miss_latency::.cpu.data   7215102000                       # number of ReadExReq MSHR miss cycles
system.l2.ReadExReq_mshr_miss_latency::total   7215102000                       # number of ReadExReq MSHR miss cycles
system.l2.ReadExReq_mshr_miss_rate::.cpu.data     0.295467                       # mshr miss rate for ReadExReq accesses
system.l2.ReadExReq_mshr_miss_rate::total     0.295467                       # mshr miss rate for ReadExReq accesses
system.l2.ReadExReq_avg_mshr_miss_latency::.cpu.data 91039.998991                       # average ReadExReq mshr miss latency
system.l2.ReadExReq_avg_mshr_miss_latency::total 91039.998991                       # average ReadExReq mshr miss latency
system.l2.ReadCleanReq_hits::.cpu.inst             16                       # number of ReadCleanReq hits
system.l2.ReadCleanReq_hits::total                 16                       # number of ReadCleanReq hits
system.l2.ReadCleanReq_misses::.cpu.inst          404                       # number of ReadCleanReq misses
system.l2.ReadCleanReq_misses::total              404                       # number of ReadCleanReq misses
system.l2.ReadCleanReq_miss_latency::.cpu.inst     42943000                       # number of ReadCleanReq miss cycles
system.l2.ReadCleanReq_miss_latency::total     42943000                       # number of ReadCleanReq miss cycles
system.l2.ReadCleanReq_accesses::.cpu.inst          420                       # number of ReadCleanReq accesses(hits+misses)
system.l2.ReadCleanReq_accesses::total            420                       # number of ReadCleanReq accesses(hits+misses)
system.l2.ReadCleanReq_miss_rate::.cpu.inst     0.961905                       # miss rate for ReadCleanReq accesses
system.l2.ReadCleanReq_miss_rate::total      0.961905                       # miss rate for ReadCleanReq accesses
system.l2.ReadCleanReq_avg_miss_latency::.cpu.inst 106294.554455                       # average ReadCleanReq miss latency
system.l2.ReadCleanReq_avg_miss_latency::total 106294.554455                       # average ReadCleanReq miss latency
system.l2.ReadCleanReq_mshr_misses::.cpu.inst          404                       # number of ReadCleanReq MSHR misses
system.l2.ReadCleanReq_mshr_misses::total          404                       # number of ReadCleanReq MSHR misses
system.l2.ReadCleanReq_mshr_miss_latency::.cpu.inst     34863000                       # number of ReadCleanReq MSHR miss cycles
system.l2.ReadCleanReq_mshr_miss_latency::total     34863000                       # number of ReadCleanReq MSHR miss cycles
system.l2.ReadCleanReq_mshr_miss_rate::.cpu.inst     0.961905                       # mshr miss rate for ReadCleanReq accesses
system.l2.ReadCleanReq_mshr_miss_rate::total     0.961905                       # mshr miss rate for ReadCleanReq accesses
system.l2.ReadCleanReq_avg_mshr_miss_latency::.cpu.inst 86294.554455                       # average ReadCleanReq mshr miss latency
system.l2.ReadCleanReq_avg_mshr_miss_latency::total 86294.554455                       # average ReadCleanReq mshr miss latency
system.l2.ReadSharedReq_hits::.cpu.data        367801                       # number of ReadSharedReq hits
system.l2.ReadSharedReq_hits::total            367801                       # number of ReadSharedReq hits
system.l2.ReadSharedReq_misses::.cpu.data        29995                       # number of ReadSharedReq misses
system.l2.ReadSharedReq_misses::total           29995                       # number of ReadSharedReq misses
system.l2.ReadSharedReq_miss_latency::.cpu.data   3098610000                       # number of ReadSharedReq miss cycles
system.l2.ReadSharedReq_miss_latency::total   3098610000                       # number of ReadSharedReq miss cycles
system.l2.ReadSharedReq_accesses::.cpu.data       397796                       # number of ReadSharedReq accesses(hits+misses)
system.l2.ReadSharedReq_accesses::total        397796                       # number of ReadSharedReq accesses(hits+misses)
system.l2.ReadSharedReq_miss_rate::.cpu.data     0.075403                       # miss rate for ReadSharedReq accesses
system.l2.ReadSharedReq_miss_rate::total     0.075403                       # miss rate for ReadSharedReq accesses
system.l2.ReadSharedReq_avg_miss_latency::.cpu.data 103304.217370                       # average ReadSharedReq miss latency
system.l2.ReadSharedReq_avg_miss_latency::total 103304.217370                       # average ReadSharedReq miss latency
system.l2.ReadSharedReq_mshr_hits::.cpu.data            5                       # number of ReadSharedReq MSHR hits
system.l2.ReadSharedReq_mshr_hits::total            5                       # number of ReadSharedReq MSHR hits
system.l2.ReadSharedReq_mshr_misses::.cpu.data        29990                       # number of ReadSharedReq MSHR misses
system.l2.ReadSharedReq_mshr_misses::total        29990                       # number of ReadSharedReq MSHR misses
system.l2.ReadSharedReq_mshr_miss_latency::.cpu.data   2498359000                       # number of ReadSharedReq MSHR miss cycles
system.l2.ReadSharedReq_mshr_miss_latency::total   2498359000                       # number of ReadSharedReq MSHR miss cycles
system.l2.ReadSharedReq_mshr_miss_rate::.cpu.data     0.075390                       # mshr miss rate for ReadSharedReq accesses
system.l2.ReadSharedReq_mshr_miss_rate::total     0.075390                       # mshr miss rate for ReadSharedReq accesses
system.l2.ReadSharedReq_avg_mshr_miss_latency::.cpu.data 83306.402134                       # average ReadSharedReq mshr miss latency
system.l2.ReadSharedReq_avg_mshr_miss_latency::total 83306.402134                       # average ReadSharedReq mshr miss latency
system.l2.tags.pwrStateResidencyTicks::UNDEFINED 159431737000                       # Cumulative time (in ticks) in various power states
system.l2.tags.tagsinuse                 31963.403209                       # Cycle average of tags in use
system.l2.tags.total_refs                     1330756                       # Total number of references to valid blocks.
system.l2.tags.sampled_refs                    109654                       # Sample count of references to valid blocks.
system.l2.tags.avg_refs                     12.135955                       # Average number of references to valid blocks.
system.l2.tags.warmup_cycle                     92000                       # Cycle when the warmup percentage was hit.
system.l2.tags.occ_blocks::.writebacks       1.204158                       # Average occupied blocks per requestor
system.l2.tags.occ_blocks::.cpu.inst        56.399227                       # Average occupied blocks per requestor
system.l2.tags.occ_blocks::.cpu.data     31905.799824                       # Average occupied blocks per requestor
system.l2.tags.occ_percent::.writebacks      0.000037                       # Average percentage of cache occupancy
system.l2.tags.occ_percent::.cpu.inst        0.001721                       # Average percentage of cache occupancy
system.l2.tags.occ_percent::.cpu.data        0.973688                       # Average percentage of cache occupancy
system.l2.tags.occ_percent::total            0.975446                       # Average percentage of cache occupancy
system.l2.tags.occ_task_id_blocks::1024         32768                       # Occupied blocks per task id
system.l2.tags.age_task_id_blocks_1024::1            2                       # Occupied blocks per task id
system.l2.tags.age_task_id_blocks_1024::2            9                       # Occupied blocks per task id
system.l2.tags.age_task_id_blocks_1024::3          199                       # Occupied blocks per task id
system.l2.tags.age_task_id_blocks_1024::4        32558                       # Occupied blocks per task id
system.l2.tags.occ_task_id_percent::1024            1                       # Percentage of cache occupancy per task id
system.l2.tags.tag_accesses                   2771178                       # Number of tag accesses
system.l2.tags.data_accesses                  2771178                       # Number of data accesses
system.cpu_voltage_domain.voltage                   1                       # Voltage in Volts
system.mem_ctrls.pwrStateResidencyTicks::UNDEFINED 159431737000                       # Cumulative time (in ticks) in various power states
system.mem_ctrls.bytes_read::.cpu.inst          51712                       # Number of bytes read from this memory
system.mem_ctrls.bytes_read::.cpu.data       13982976                       # Number of bytes read from this memory
system.mem_ctrls.bytes_read::total           14034688                       # Number of bytes read from this memory
system.mem_ctrls.bytes_inst_read::.cpu.inst        51712                       # Number of instructions bytes read from this memory
system.mem_ctrls.bytes_inst_read::total         51712                       # Number of instructions bytes read from this memory
system.mem_ctrls.bytes_written::.writebacks      6249216                       # Number of bytes written to this memory
system.mem_ctrls.bytes_written::total         6249216                       # Number of bytes written to this memory
system.mem_ctrls.num_reads::.cpu.inst             404                       # Number of read requests responded to by this memory
system.mem_ctrls.num_reads::.cpu.data          109242                       # Number of read requests responded to by this memory
system.mem_ctrls.num_reads::total              109646                       # Number of read requests responded to by this memory
system.mem_ctrls.num_writes::.writebacks        48822                       # Number of write requests responded to by this memory
system.mem_ctrls.num_writes::total              48822                       # Number of write requests responded to by this memory
system.mem_ctrls.bw_read::.cpu.inst            324352                       # Total read bandwidth from this memory (bytes/s)
system.mem_ctrls.bw_read::.cpu.data          87705097                       # Total read bandwidth from this memory (bytes/s)
system.mem_ctrls.bw_read::total              88029449                       # Total read bandwidth from this memory (bytes/s)
system.mem_ctrls.bw_inst_read::.cpu.inst       324352                       # Instruction read bandwidth from this memory (bytes/s)
system.mem_ctrls.bw_inst_read::total           324352                       # Instruction read bandwidth from this memory (bytes/s)
system.mem_ctrls.bw_write::.writebacks       39196813                       # Write bandwidth from this memory (bytes/s)
system.mem_ctrls.bw_write::total             39196813                       # Write bandwidth from this memory (bytes/s)
system.mem_ctrls.bw_total::.writebacks       39196813                       # Total bandwidth to/from this memory (bytes/s)
system.mem_ctrls.bw_total::.cpu.inst           324352                       # Total bandwidth to/from this memory (bytes/s)
system.mem_ctrls.bw_total::.cpu.data         87705097                       # Total bandwidth to/from this memory (bytes/s)
system.mem_ctrls.bw_total::total            127226262                       # Total bandwidth to/from this memory (bytes/s)
system.mem_ctrls.avgPriority_.writebacks::samples     97644.00                       # Average QoS priority value for accepted requests
system.mem_ctrls.avgPriority_.cpu.inst::samples       808.00                       # Average QoS priority value for accepted requests
system.mem_ctrls.avgPriority_.cpu.data::samples    218443.00                       # Average QoS priority value for accepted requests
system.mem_ctrls.priorityMinLatency      0.000000018750                       # per QoS priority minimum request to response latency (s)
system.mem_ctrls.priorityMaxLatency      0.039781488750                       # per QoS priority maximum request to response latency (s)
system.mem_ctrls.numReadWriteTurnArounds         5913                       # Number of turnarounds from READ to WRITE
system.mem_ctrls.numWriteReadTurnArounds         5913                       # Number of turnarounds from WRITE to READ
system.mem_ctrls.numStayReadState              409831                       # Number of times bus staying in READ state
system.mem_ctrls.numStayWriteState              91782                       # Number of times bus staying in WRITE state
system.mem_ctrls.readReqs                      109646                       # Number of read requests accepted
system.mem_ctrls.writeReqs                      48822                       # Number of write requests accepted
system.mem_ctrls.readBursts                    219292                       # Number of DRAM read bursts, including those serviced by the write queue
system.mem_ctrls.writeBursts                    97644                       # Number of DRAM write bursts, including those merged in the write queue
system.mem_ctrls.servicedByWrQ                     41                       # Number of DRAM read bursts serviced by the write queue
system.mem_ctrls.mergedWrBursts                     0                       # Number of DRAM write bursts merged with an existing one
system.mem_ctrls.neitherReadNorWriteReqs            0                       # Number of requests that are neither read nor write
system.mem_ctrls.perBankRdBursts::0             13910                       # Per bank write bursts
system.mem_ctrls.perBankRdBursts::1             13846                       # Per bank write bursts
system.mem_ctrls.perBankRdBursts::2             13766                       # Per bank write bursts
system.mem_ctrls.perBankRdBursts::3             13420                       # Per bank write bursts
system.mem_ctrls.perBankRdBursts::4             13560                       # Per bank write bursts
system.mem_ctrls.perBankRdBursts::5             13596                       # Per bank write bursts
system.mem_ctrls.perBankRdBursts::6             13528                       # Per bank write bursts
system.mem_ctrls.perBankRdBursts::7             13690                       # Per bank write bursts
system.mem_ctrls.perBankRdBursts::8             13721                       # Per bank write bursts
system.mem_ctrls.perBankRdBursts::9             13712                       # Per bank write bursts
system.mem_ctrls.perBankRdBursts::10            13940                       # Per bank write bursts
system.mem_ctrls.perBankRdBursts::11            13876                       # Per bank write bursts
system.mem_ctrls.perBankRdBursts::12            13876                       # Per bank write bursts
system.mem_ctrls.perBankRdBursts::13            13628                       # Per bank write bursts
system.mem_ctrls.perBankRdBursts::14            13482                       # Per bank write bursts
system.mem_ctrls.perBankRdBursts::15            13700                       # Per bank write bursts
system.mem_ctrls.perBankWrBursts::0              6196                       # Per bank write bursts
system.mem_ctrls.perBankWrBursts::1              6280                       # Per bank write bursts
system.mem_ctrls.perBankWrBursts::2              6176                       # Per bank write bursts
system.mem_ctrls.perBankWrBursts::3              6076                       # Per bank write bursts
system.mem_ctrls.perBankWrBursts::4              6034                       # Per bank write bursts
system.mem_ctrls.perBankWrBursts::5              6042                       # Per bank write bursts
system.mem_ctrls.perBankWrBursts::6              5912                       # Per bank write bursts
system.mem_ctrls.perBankWrBursts::7              5980                       # Per bank write bursts
system.mem_ctrls.perBankWrBursts::8              6116                       # Per bank write bursts
system.mem_ctrls.perBankWrBursts::9              6062                       # Per bank write bursts
system.mem_ctrls.perBankWrBursts::10             6109                       # Per bank write bursts
system.mem_ctrls.perBankWrBursts::11             6112                       # Per bank write bursts
system.mem_ctrls.perBankWrBursts::12             6164                       # Per bank write bursts
system.mem_ctrls.perBankWrBursts::13             6142                       # Per bank write bursts
system.mem_ctrls.perBankWrBursts::14             6100                       # Per bank write bursts
system.mem_ctrls.perBankWrBursts::15             6124                       # Per bank write bursts
system.mem_ctrls.avgRdQLen                       2.02                       # Average read queue length when enqueuing
system.mem_ctrls.avgWrQLen                      25.37                       # Average write queue length when enqueuing
system.mem_ctrls.totQLat                   3563421000                       # Total ticks spent queuing
system.mem_ctrls.totBusLat                 1096255000                       # Total ticks spent in databus transfers
system.mem_ctrls.totMemAccLat              7674377250                       # Total ticks spent from burst creation until serviced by the DRAM
system.mem_ctrls.avgQLat                     16252.70                       # Average queueing delay per DRAM burst
system.mem_ctrls.avgBusLat                    5000.00                       # Average bus latency per DRAM burst
system.mem_ctrls.avgMemAccLat                35002.70                       # Average memory access latency per DRAM burst
system.mem_ctrls.numRdRetry                         0                       # Number of times read queue was full causing retry
system.mem_ctrls.numWrRetry                         0                       # Number of times write queue was full causing retry
system.mem_ctrls.readRowHits                   183627                       # Number of row buffer hits during reads
system.mem_ctrls.writeRowHits                   82906                       # Number of row buffer hits during writes
system.mem_ctrls.readRowHitRate                 83.75                       # Row buffer hit rate for reads
system.mem_ctrls.writeRowHitRate                84.91                       # Row buffer hit rate for writes
system.mem_ctrls.readPktSize::0                     0                       # Read request sizes (log2)
system.mem_ctrls.readPktSize::1                     0                       # Read request sizes (log2)
system.mem_ctrls.readPktSize::2                     0                       # Read request sizes (log2)
system.mem_ctrls.readPktSize::3                     0                       # Read request sizes (log2)
system.mem_ctrls.readPktSize::4                     0                       # Read request sizes (log2)
system.mem_ctrls.readPktSize::5                     0                       # Read request sizes (log2)
system.mem_ctrls.readPktSize::6                219292                       # Read request sizes (log2)
system.mem_ctrls.writePktSize::0                    0                       # Write request sizes (log2)
system.mem_ctrls.writePktSize::1                    0                       # Write request sizes (log2)
system.mem_ctrls.writePktSize::2                    0                       # Write request sizes (log2)
system.mem_ctrls.writePktSize::3                    0                       # Write request sizes (log2)
system.mem_ctrls.writePktSize::4                    0                       # Write request sizes (log2)
system.mem_ctrls.writePktSize::5                    0                       # Write request sizes (log2)
system.mem_ctrls.writePktSize::6                97644                       # Write request sizes (log2)
system.mem_ctrls.rdQLenPdf::0                   94996                       # What read queue length does an incoming req see
system.mem_ctrls.rdQLenPdf::1                  103537                       # What read queue length does an incoming req see
system.mem_ctrls.rdQLenPdf::2                   14626                       # What read queue length does an incoming req see
system.mem_ctrls.rdQLenPdf::3                    6084                       # What read queue length does an incoming req see
system.mem_ctrls.rdQLenPdf::4                       3                       # What read queue length does an incoming req see
system.mem_ctrls.rdQLenPdf::5                       3                       # What read queue length does an incoming req see
system.mem_ctrls.rdQLenPdf::6                       1                       # What read queue length does an incoming req see
system.mem_ctrls.rdQLenPdf::7                       1                       # What read queue length does an incoming req see
system.mem_ctrls.rdQLenPdf::8                       0                       # What read queue length does an incoming req see
system.mem_ctrls.rdQLenPdf::9                       0                       # What read queue length does an incoming req see
system.mem_ctrls.rdQLenPdf::10                      0                       # What read queue length does an incoming req see
system.mem_ctrls.rdQLenPdf::11                      0                       # What read queue length does an incoming req see
system.mem_ctrls.rdQLenPdf::12                      0                       # What read queue length does an incoming req see
system.mem_ctrls.rdQLenPdf::13                      0                       # What read queue length does an incoming req see
system.mem_ctrls.rdQLenPdf::14                      0                       # What read queue length does an incoming req see
system.mem_ctrls.rdQLenPdf::15                      0                       # What read queue length does an incoming req see
system.mem_ctrls.rdQLenPdf::16                      0                       # What read queue length does an incoming req see
system.mem_ctrls.rdQLenPdf::17                      0                       # What read queue length does an incoming req see
system.mem_ctrls.rdQLenPdf::18                      0                       # What read queue length does an incoming req see
system.mem_ctrls.rdQLenPdf::19                      0                       # What read queue length does an incoming req see
system.mem_ctrls.rdQLenPdf::20                      0                       # What read queue length does an incoming req see
system.mem_ctrls.rdQLenPdf::21                      0                       # What read queue length does an incoming req see
system.mem_ctrls.rdQLenPdf::22                      0                       # What read queue length does an incoming req see
system.mem_ctrls.rdQLenPdf::23                      0                       # What read queue length does an incoming req see
system.mem_ctrls.rdQLenPdf::24                      0                       # What read queue length does an incoming req see
system.mem_ctrls.rdQLenPdf::25                      0                       # What read queue length does an incoming req see
system.mem_ctrls.rdQLenPdf::26                      0                       # What read queue length does an incoming req see
system.mem_ctrls.rdQLenPdf::27                      0                       # What read queue length does an incoming req see
system.mem_ctrls.rdQLenPdf::28                      0                       # What read queue length does an incoming req see
system.mem_ctrls.rdQLenPdf::29                      0                       # What read queue length does an incoming req see
system.mem_ctrls.rdQLenPdf::30                      0                       # What read queue length does an incoming req see
system.mem_ctrls.rdQLenPdf::31                      0                       # What read queue length does an incoming req see
system.mem_ctrls.wrQLenPdf::0                       1                       # What write queue length does an incoming req see
system.mem_ctrls.wrQLenPdf::1                       1                       # What write queue length does an incoming req see
system.mem_ctrls.wrQLenPdf::2                       1                       # What write queue length does an incoming req see
system.mem_ctrls.wrQLenPdf::3                       1                       # What write queue length does an incoming req see
system.mem_ctrls.wrQLenPdf::4                       1                       # What write queue length does an incoming req see
system.mem_ctrls.wrQLenPdf::5                       1                       # What write queue length does an incoming req see
system.mem_ctrls.wrQLenPdf::6                       1                       # What write queue length does an incoming req see
system.mem_ctrls.wrQLenPdf::7                       1                       # What write queue length does an incoming req see
system.mem_ctrls.wrQLenPdf::8                       1                       # What write queue length does an incoming req see
system.mem_ctrls.wrQLenPdf::9                       1                       # What write queue length does an incoming req see
system.mem_ctrls.wrQLenPdf::10                      1                       # What write queue length does an incoming req see
system.mem_ctrls.wrQLenPdf::11                      1                       # What write queue length does an incoming req see
system.mem_ctrls.wrQLenPdf::12                      1                       # What write queue length does an incoming req see
system.mem_ctrls.wrQLenPdf::13                      1                       # What write queue length does an incoming req see
system.mem_ctrls.wrQLenPdf::14                      1                       # What write queue length does an incoming req see
system.mem_ctrls.wrQLenPdf::15                   1282                       # What write queue length does an incoming req see
system.mem_ctrls.wrQLenPdf::16                   1337                       # What write queue length does an incoming req see
system.mem_ctrls.wrQLenPdf::17                   1646                       # What write queue length does an incoming req see
system.mem_ctrls.wrQLenPdf::18                   5592                       # What write queue length does an incoming req see
system.mem_ctrls.wrQLenPdf::19                   5802                       # What write queue length does an incoming req see
system.mem_ctrls.wrQLenPdf::20                   5966                       # What write queue length does an incoming req see
system.mem_ctrls.wrQLenPdf::21                   6110                       # What write queue length does an incoming req see
system.mem_ctrls.wrQLenPdf::22                   6122                       # What write queue length does an incoming req see
system.mem_ctrls.wrQLenPdf::23                   6043                       # What write queue length does an incoming req see
system.mem_ctrls.wrQLenPdf::24                   5997                       # What write queue length does an incoming req see
system.mem_ctrls.wrQLenPdf::25                   5943                       # What write queue length does an incoming req see
system.mem_ctrls.wrQLenPdf::26                   5973                       # What write queue length does an incoming req see
system.mem_ctrls.wrQLenPdf::27                   5958                       # What write queue length does an incoming req see
system.mem_ctrls.wrQLenPdf::28                   5948                       # What write queue length does an incoming req see
system.mem_ctrls.wrQLenPdf::29                   5994                       # What write queue length does an incoming req see
system.mem_ctrls.wrQLenPdf::30                   5963                       # What write queue length does an incoming req see
system.mem_ctrls.wrQLenPdf::31                   5914                       # What write queue length does an incoming req see
system.mem_ctrls.wrQLenPdf::32                   5913                       # What write queue length does an incoming req see
system.mem_ctrls.wrQLenPdf::33                   4121                       # What write queue length does an incoming req see
system.mem_ctrls.wrQLenPdf::34                      3                       # What write queue length does an incoming req see
system.mem_ctrls.wrQLenPdf::35                      2                       # What write queue length does an incoming req see
system.mem_ctrls.wrQLenPdf::36                      0                       # What write queue length does an incoming req see
system.mem_ctrls.wrQLenPdf::37                      0                       # What write queue length does an incoming req see
system.mem_ctrls.wrQLenPdf::38                      0                       # What write queue length does an incoming req see
system.mem_ctrls.wrQLenPdf::39                      0                       # What write queue length does an incoming req see
system.mem_ctrls.wrQLenPdf::40                      0                       # What write queue length does an incoming req see
system.mem_ctrls.wrQLenPdf::41                      0                       # What write queue length does an incoming req see
system.mem_ctrls.wrQLenPdf::42                      0                       # What write queue length does an incoming req see
system.mem_ctrls.wrQLenPdf::43                      0                       # What write queue length does an incoming req see
system.mem_ctrls.wrQLenPdf::44                      0                       # What write queue length does an incoming req see
system.mem_ctrls.wrQLenPdf::45                      0                       # What write queue length does an incoming req see
system.mem_ctrls.wrQLenPdf::46                      0                       # What write queue length does an incoming req see
system.mem_ctrls.wrQLenPdf::47                      0                       # What write queue length does an incoming req see
system.mem_ctrls.wrQLenPdf::48                      0                       # What write queue length does an incoming req see
system.mem_ctrls.wrQLenPdf::49                      0                       # What write queue length does an incoming req see
system.mem_ctrls.wrQLenPdf::50                      0                       # What write queue length does an incoming req see
system.mem_ctrls.wrQLenPdf::51                      0                       # What write queue length does an incoming req see
system.mem_ctrls.wrQLenPdf::52                      0                       # What write queue length does an incoming req see
system.mem_ctrls.wrQLenPdf::53                      0                       # What write queue length does an incoming req see
system.mem_ctrls.wrQLenPdf::54                      0                       # What write queue length does an incoming req see
system.mem_ctrls.wrQLenPdf::55                      0                       # What write queue length does an incoming req see
system.mem_ctrls.wrQLenPdf::56                      0                       # What write queue length does an incoming req see
system.mem_ctrls.wrQLenPdf::57                      0                       # What write queue length does an incoming req see
system.mem_ctrls.wrQLenPdf::58                      0                       # What write queue length does an incoming req see
system.mem_ctrls.wrQLenPdf::59                      0                       # What write queue length does an incoming req see
system.mem_ctrls.wrQLenPdf::60                      0                       # What write queue length does an incoming req see
system.mem_ctrls.wrQLenPdf::61                      0                       # What write queue length does an incoming req see
system.mem_ctrls.wrQLenPdf::62                      0                       # What write queue length does an incoming req see
system.mem_ctrls.wrQLenPdf::63                      0                       # What write queue length does an incoming req see
system.mem_ctrls.bytesPerActivate::samples        50343                       # Bytes accessed per row activation
system.mem_ctrls.bytesPerActivate::mean    402.837813                       # Bytes accessed per row activation
system.mem_ctrls.bytesPerActivate::gmean   257.125621                       # Bytes accessed per row activation
system.mem_ctrls.bytesPerActivate::stdev   382.578004                       # Bytes accessed per row activation
system.mem_ctrls.bytesPerActivate::0-127         1563      3.10%      3.10% # Bytes accessed per row activation
system.mem_ctrls.bytesPerActivate::128-255        27355     54.34%     57.44% # Bytes accessed per row activation
system.mem_ctrls.bytesPerActivate::256-383         3366      6.69%     64.13% # Bytes accessed per row activation
system.mem_ctrls.bytesPerActivate::384-511         2366      4.70%     68.83% # Bytes accessed per row activation
system.mem_ctrls.bytesPerActivate::512-639         1018      2.02%     70.85% # Bytes accessed per row activation
system.mem_ctrls.bytesPerActivate::640-767         1086      2.16%     73.01% # Bytes accessed per row activation
system.mem_ctrls.bytesPerActivate::768-895          660      1.31%     74.32% # Bytes accessed per row activation
system.mem_ctrls.bytesPerActivate::896-1023          707      1.40%     75.72% # Bytes accessed per row activation
system.mem_ctrls.bytesPerActivate::1024-1151        12222     24.28%    100.00% # Bytes accessed per row activation
system.mem_ctrls.bytesPerActivate::total        50343                       # Bytes accessed per row activation
system.mem_ctrls.rdPerTurnAround::samples         5913                       # Reads before turning the bus around for writes
system.mem_ctrls.rdPerTurnAround::mean      37.078809                       # Reads before turning the bus around for writes
system.mem_ctrls.rdPerTurnAround::gmean     24.303436                       # Reads before turning the bus around for writes
system.mem_ctrls.rdPerTurnAround::stdev    137.026056                       # Reads before turning the bus around for writes
system.mem_ctrls.rdPerTurnAround::0-511          5893     99.66%     99.66% # Reads before turning the bus around for writes
system.mem_ctrls.rdPerTurnAround::512-1023           12      0.20%     99.86% # Reads before turning the bus around for writes
system.mem_ctrls.rdPerTurnAround::1024-1535            6      0.10%     99.97% # Reads before turning the bus around for writes
system.mem_ctrls.rdPerTurnAround::3072-3583            1      0.02%     99.98% # Reads before turning the bus around for writes
system.mem_ctrls.rdPerTurnAround::8704-9215            1      0.02%    100.00% # Reads before turning the bus around for writes
system.mem_ctrls.rdPerTurnAround::total          5913                       # Reads before turning the bus around for writes
[...]
system.cpu.icache.ReadReq_avg_miss_latency::.cpu.inst 108130.952381                       # average ReadReq miss latency
system.cpu.icache.ReadReq_avg_miss_latency::total 108130.952381                       # average ReadReq miss latency
system.cpu.icache.ReadReq_mshr_misses::.cpu.inst          420                       # number of ReadReq MSHR misses
system.cpu.icache.ReadReq_mshr_misses::total          420                       # number of ReadReq MSHR misses
system.cpu.icache.ReadReq_mshr_miss_latency::.cpu.inst     44575000                       # number of ReadReq MSHR miss cycles
system.cpu.icache.ReadReq_mshr_miss_latency::total     44575000                       # number of ReadReq MSHR miss cycles
system.cpu.icache.ReadReq_mshr_miss_rate::.cpu.inst     0.000052                       # mshr miss rate for ReadReq accesses
system.cpu.icache.ReadReq_mshr_miss_rate::total     0.000052                       # mshr miss rate for ReadReq accesses
system.cpu.icache.ReadReq_avg_mshr_miss_latency::.cpu.inst 106130.952381                       # average ReadReq mshr miss latency
system.cpu.icache.ReadReq_avg_mshr_miss_latency::total 106130.952381                       # average ReadReq mshr miss latency
system.cpu.icache.tags.pwrStateResidencyTicks::UNDEFINED 159431737000                       # Cumulative time (in ticks) in various power states
system.cpu.icache.tags.tagsinuse           353.880598                       # Cycle average of tags in use
system.cpu.icache.tags.total_refs             8051262                       # Total number of references to valid blocks.
system.cpu.icache.tags.sampled_refs               420                       # Sample count of references to valid blocks.
system.cpu.icache.tags.avg_refs          19169.671429                       # Average number of references to valid blocks.
system.cpu.icache.tags.warmup_cycle            113000                       # Cycle when the warmup percentage was hit.
system.cpu.icache.tags.occ_blocks::.cpu.inst   353.880598                       # Average occupied blocks per requestor
system.cpu.icache.tags.occ_percent::.cpu.inst     0.345587                       # Average percentage of cache occupancy
system.cpu.icache.tags.occ_percent::total     0.345587                       # Average percentage of cache occupancy
system.cpu.icache.tags.occ_task_id_blocks::1024          419                       # Occupied blocks per task id
system.cpu.icache.tags.age_task_id_blocks_1024::4          419                       # Occupied blocks per task id
system.cpu.icache.tags.occ_task_id_percent::1024     0.409180                       # Percentage of cache occupancy per task id
system.cpu.icache.tags.tag_accesses          32205468                       # Number of tag accesses
system.cpu.icache.tags.data_accesses         32205468                       # Number of data accesses
system.cpu.dtb.walker.pwrStateResidencyTicks::UNDEFINED 159431737000                       # Cumulative time (in ticks) in various power states
system.cpu.dtb.stage2_mmu.stage2_tlb.walker.pwrStateResidencyTicks::UNDEFINED 159431737000                       # Cumulative time (in ticks) in various power states
system.cpu.dcache.pwrStateResidencyTicks::UNDEFINED 159431737000                       # Cumulative time (in ticks) in various power states
system.cpu.dcache.demand_hits::.cpu.data     51357290                       # number of demand (read+write) hits
system.cpu.dcache.demand_hits::total         51357290                       # number of demand (read+write) hits
system.cpu.dcache.overall_hits::.cpu.data     51357912                       # number of overall hits
system.cpu.dcache.overall_hits::total        51357912                       # number of overall hits
system.cpu.dcache.demand_misses::.cpu.data       695599                       # number of demand (read+write) misses
system.cpu.dcache.demand_misses::total         695599                       # number of demand (read+write) misses
system.cpu.dcache.overall_misses::.cpu.data       703396                       # number of overall misses
system.cpu.dcache.overall_misses::total        703396                       # number of overall misses
system.cpu.dcache.demand_miss_latency::.cpu.data  29819969000                       # number of demand (read+write) miss cycles
system.cpu.dcache.demand_miss_latency::total  29819969000                       # number of demand (read+write) miss cycles
system.cpu.dcache.overall_miss_latency::.cpu.data  29819969000                       # number of overall miss cycles
system.cpu.dcache.overall_miss_latency::total  29819969000                       # number of overall miss cycles
system.cpu.dcache.demand_accesses::.cpu.data     52052889                       # number of demand (read+write) accesses
system.cpu.dcache.demand_accesses::total     52052889                       # number of demand (read+write) accesses
system.cpu.dcache.overall_accesses::.cpu.data     52061308                       # number of overall (read+write) accesses
system.cpu.dcache.overall_accesses::total     52061308                       # number of overall (read+write) accesses
system.cpu.dcache.demand_miss_rate::.cpu.data     0.013363                       # miss rate for demand accesses
system.cpu.dcache.demand_miss_rate::total     0.013363                       # miss rate for demand accesses
system.cpu.dcache.overall_miss_rate::.cpu.data     0.013511                       # miss rate for overall accesses
system.cpu.dcache.overall_miss_rate::total     0.013511                       # miss rate for overall accesses
system.cpu.dcache.demand_avg_miss_latency::.cpu.data 42869.482274                       # average overall miss latency
system.cpu.dcache.demand_avg_miss_latency::total 42869.482274                       # average overall miss latency
system.cpu.dcache.overall_avg_miss_latency::.cpu.data 42394.282879                       # average overall miss latency
system.cpu.dcache.overall_avg_miss_latency::total 42394.282879                       # average overall miss latency
system.cpu.dcache.blocked_cycles::no_mshrs            0                       # number of cycles access was blocked
system.cpu.dcache.blocked_cycles::no_targets            0                       # number of cycles access was blocked
system.cpu.dcache.blocked::no_mshrs                 0                       # number of cycles access was blocked
system.cpu.dcache.blocked::no_targets               0                       # number of cycles access was blocked
system.cpu.dcache.avg_blocked_cycles::no_mshrs          nan                       # average number of cycles each access was blocked
system.cpu.dcache.avg_blocked_cycles::no_targets          nan                       # average number of cycles each access was blocked
system.cpu.dcache.writebacks::.writebacks       626184                       # number of writebacks
system.cpu.dcache.writebacks::total            626184                       # number of writebacks
system.cpu.dcache.demand_mshr_hits::.cpu.data        33540                       # number of demand (read+write) MSHR hits
system.cpu.dcache.demand_mshr_hits::total        33540                       # number of demand (read+write) MSHR hits
system.cpu.dcache.overall_mshr_hits::.cpu.data        33540                       # number of overall MSHR hits
system.cpu.dcache.overall_mshr_hits::total        33540                       # number of overall MSHR hits
system.cpu.dcache.demand_mshr_misses::.cpu.data       662059                       # number of demand (read+write) MSHR misses
system.cpu.dcache.demand_mshr_misses::total       662059                       # number of demand (read+write) MSHR misses
system.cpu.dcache.overall_mshr_misses::.cpu.data       666022                       # number of overall MSHR misses
system.cpu.dcache.overall_mshr_misses::total       666022                       # number of overall MSHR misses
system.cpu.dcache.demand_mshr_miss_latency::.cpu.data  25470288000                       # number of demand (read+write) MSHR miss cycles
system.cpu.dcache.demand_mshr_miss_latency::total  25470288000                       # number of demand (read+write) MSHR miss cycles
system.cpu.dcache.overall_mshr_miss_latency::.cpu.data  25824254000                       # number of overall MSHR miss cycles
system.cpu.dcache.overall_mshr_miss_latency::total  25824254000                       # number of overall MSHR miss cycles
system.cpu.dcache.demand_mshr_miss_rate::.cpu.data     0.012719                       # mshr miss rate for demand accesses
system.cpu.dcache.demand_mshr_miss_rate::total     0.012719                       # mshr miss rate for demand accesses
system.cpu.dcache.overall_mshr_miss_rate::.cpu.data     0.012793                       # mshr miss rate for overall accesses
system.cpu.dcache.overall_mshr_miss_rate::total     0.012793                       # mshr miss rate for overall accesses
system.cpu.dcache.demand_avg_mshr_miss_latency::.cpu.data 38471.326574                       # average overall mshr miss latency
system.cpu.dcache.demand_avg_mshr_miss_latency::total 38471.326574                       # average overall mshr miss latency
system.cpu.dcache.overall_avg_mshr_miss_latency::.cpu.data 38773.875337                       # average overall mshr miss latency
system.cpu.dcache.overall_avg_mshr_miss_latency::total 38773.875337                       # average overall mshr miss latency
system.cpu.dcache.replacements                 664997                       # number of replacements
system.cpu.dcache.ReadReq_hits::.cpu.data     40705223                       # number of ReadReq hits
system.cpu.dcache.ReadReq_hits::total        40705223                       # number of ReadReq hits
system.cpu.dcache.ReadReq_misses::.cpu.data       397574                       # number of ReadReq misses
system.cpu.dcache.ReadReq_misses::total        397574                       # number of ReadReq misses
system.cpu.dcache.ReadReq_miss_latency::.cpu.data  12825415000                       # number of ReadReq miss cycles
system.cpu.dcache.ReadReq_miss_latency::total  12825415000                       # number of ReadReq miss cycles
system.cpu.dcache.ReadReq_accesses::.cpu.data     41102797                       # number of ReadReq accesses(hits+misses)
system.cpu.dcache.ReadReq_accesses::total     41102797                       # number of ReadReq accesses(hits+misses)
system.cpu.dcache.ReadReq_miss_rate::.cpu.data     0.009673                       # miss rate for ReadReq accesses
system.cpu.dcache.ReadReq_miss_rate::total     0.009673                       # miss rate for ReadReq accesses
system.cpu.dcache.ReadReq_avg_miss_latency::.cpu.data 32259.189484                       # average ReadReq miss latency
system.cpu.dcache.ReadReq_avg_miss_latency::total 32259.189484                       # average ReadReq miss latency
system.cpu.dcache.ReadReq_mshr_hits::.cpu.data         3605                       # number of ReadReq MSHR hits
system.cpu.dcache.ReadReq_mshr_hits::total         3605                       # number of ReadReq MSHR hits
system.cpu.dcache.ReadReq_mshr_misses::.cpu.data       393969                       # number of ReadReq MSHR misses
system.cpu.dcache.ReadReq_mshr_misses::total       393969                       # number of ReadReq MSHR misses
system.cpu.dcache.ReadReq_mshr_miss_latency::.cpu.data  11813620000                       # number of ReadReq MSHR miss cycles
system.cpu.dcache.ReadReq_mshr_miss_latency::total  11813620000                       # number of ReadReq MSHR miss cycles
system.cpu.dcache.ReadReq_mshr_miss_rate::.cpu.data     0.009585                       # mshr miss rate for ReadReq accesses
system.cpu.dcache.ReadReq_mshr_miss_rate::total     0.009585                       # mshr miss rate for ReadReq accesses
system.cpu.dcache.ReadReq_avg_mshr_miss_latency::.cpu.data 29986.166424                       # average ReadReq mshr miss latency
system.cpu.dcache.ReadReq_avg_mshr_miss_latency::total 29986.166424                       # average ReadReq mshr miss latency
system.cpu.dcache.WriteReq_hits::.cpu.data     10652067                       # number of WriteReq hits
system.cpu.dcache.WriteReq_hits::total       10652067                       # number of WriteReq hits
system.cpu.dcache.WriteReq_misses::.cpu.data       298025                       # number of WriteReq misses
system.cpu.dcache.WriteReq_misses::total       298025                       # number of WriteReq misses
system.cpu.dcache.WriteReq_miss_latency::.cpu.data  16994554000                       # number of WriteReq miss cycles
system.cpu.dcache.WriteReq_miss_latency::total  16994554000                       # number of WriteReq miss cycles
system.cpu.dcache.WriteReq_accesses::.cpu.data     10950092                       # number of WriteReq accesses(hits+misses)
system.cpu.dcache.WriteReq_accesses::total     10950092                       # number of WriteReq accesses(hits+misses)
system.cpu.dcache.WriteReq_miss_rate::.cpu.data     0.027217                       # miss rate for WriteReq accesses
system.cpu.dcache.WriteReq_miss_rate::total     0.027217                       # miss rate for WriteReq accesses
system.cpu.dcache.WriteReq_avg_miss_latency::.cpu.data 57023.920812                       # average WriteReq miss latency
system.cpu.dcache.WriteReq_avg_miss_latency::total 57023.920812                       # average WriteReq miss latency
system.cpu.dcache.WriteReq_mshr_hits::.cpu.data        29935                       # number of WriteReq MSHR hits
system.cpu.dcache.WriteReq_mshr_hits::total        29935                       # number of WriteReq MSHR hits
system.cpu.dcache.WriteReq_mshr_misses::.cpu.data       268090                       # number of WriteReq MSHR misses
system.cpu.dcache.WriteReq_mshr_misses::total       268090                       # number of WriteReq MSHR misses
system.cpu.dcache.WriteReq_mshr_miss_latency::.cpu.data  13656668000                       # number of WriteReq MSHR miss cycles
system.cpu.dcache.WriteReq_mshr_miss_latency::total  13656668000                       # number of WriteReq MSHR miss cycles
system.cpu.dcache.WriteReq_mshr_miss_rate::.cpu.data     0.024483                       # mshr miss rate for WriteReq accesses
system.cpu.dcache.WriteReq_mshr_miss_rate::total     0.024483                       # mshr miss rate for WriteReq accesses
system.cpu.dcache.WriteReq_avg_mshr_miss_latency::.cpu.data 50940.609497                       # average WriteReq mshr miss latency
system.cpu.dcache.WriteReq_avg_mshr_miss_latency::total 50940.609497                       # average WriteReq mshr miss latency
system.cpu.dcache.SoftPFReq_hits::.cpu.data          622                       # number of SoftPFReq hits
system.cpu.dcache.SoftPFReq_hits::total           622                       # number of SoftPFReq hits
system.cpu.dcache.SoftPFReq_misses::.cpu.data         7797                       # number of SoftPFReq misses
system.cpu.dcache.SoftPFReq_misses::total         7797                       # number of SoftPFReq misses
system.cpu.dcache.SoftPFReq_accesses::.cpu.data         8419                       # number of SoftPFReq accesses(hits+misses)
system.cpu.dcache.SoftPFReq_accesses::total         8419                       # number of SoftPFReq accesses(hits+misses)
system.cpu.dcache.SoftPFReq_miss_rate::.cpu.data     0.926119                       # miss rate for SoftPFReq accesses
system.cpu.dcache.SoftPFReq_miss_rate::total     0.926119                       # miss rate for SoftPFReq accesses
system.cpu.dcache.SoftPFReq_mshr_misses::.cpu.data         3963                       # number of SoftPFReq MSHR misses
system.cpu.dcache.SoftPFReq_mshr_misses::total         3963                       # number of SoftPFReq MSHR misses
system.cpu.dcache.SoftPFReq_mshr_miss_latency::.cpu.data    353966000                       # number of SoftPFReq MSHR miss cycles
system.cpu.dcache.SoftPFReq_mshr_miss_latency::total    353966000                       # number of SoftPFReq MSHR miss cycles
system.cpu.dcache.SoftPFReq_mshr_miss_rate::.cpu.data     0.470721                       # mshr miss rate for SoftPFReq accesses
system.cpu.dcache.SoftPFReq_mshr_miss_rate::total     0.470721                       # mshr miss rate for SoftPFReq accesses
system.cpu.dcache.SoftPFReq_avg_mshr_miss_latency::.cpu.data 89317.688620                       # average SoftPFReq mshr miss latency
system.cpu.dcache.SoftPFReq_avg_mshr_miss_latency::total 89317.688620                       # average SoftPFReq mshr miss latency
system.cpu.dcache.LoadLockedReq_hits::.cpu.data           38                       # number of LoadLockedReq hits
system.cpu.dcache.LoadLockedReq_hits::total           38                       # number of LoadLockedReq hits
system.cpu.dcache.LoadLockedReq_accesses::.cpu.data           38                       # number of LoadLockedReq accesses(hits+misses)
system.cpu.dcache.LoadLockedReq_accesses::total           38                       # number of LoadLockedReq accesses(hits+misses)
system.cpu.dcache.StoreCondReq_hits::.cpu.data           38                       # number of StoreCondReq hits
system.cpu.dcache.StoreCondReq_hits::total           38                       # number of StoreCondReq hits
system.cpu.dcache.StoreCondReq_accesses::.cpu.data           38                       # number of StoreCondReq accesses(hits+misses)
system.cpu.dcache.StoreCondReq_accesses::total           38                       # number of StoreCondReq accesses(hits+misses)
system.cpu.dcache.tags.pwrStateResidencyTicks::UNDEFINED 159431737000                       # Cumulative time (in ticks) in various power states
system.cpu.dcache.tags.tagsinuse          1011.950968                       # Cycle average of tags in use
system.cpu.dcache.tags.total_refs            52024009                       # Total number of references to valid blocks.
system.cpu.dcache.tags.sampled_refs            666021                       # Sample count of references to valid blocks.
system.cpu.dcache.tags.avg_refs             78.111665                       # Average number of references to valid blocks.
system.cpu.dcache.tags.warmup_cycle            233000                       # Cycle when the warmup percentage was hit.
system.cpu.dcache.tags.occ_blocks::.cpu.data  1011.950968                       # Average occupied blocks per requestor
system.cpu.dcache.tags.occ_percent::.cpu.data     0.988233                       # Average percentage of cache occupancy
system.cpu.dcache.tags.occ_percent::total     0.988233                       # Average percentage of cache occupancy
system.cpu.dcache.tags.occ_task_id_blocks::1024         1024                       # Occupied blocks per task id
system.cpu.dcache.tags.age_task_id_blocks_1024::0          156                       # Occupied blocks per task id
system.cpu.dcache.tags.age_task_id_blocks_1024::1          253                       # Occupied blocks per task id
system.cpu.dcache.tags.age_task_id_blocks_1024::2          589                       # Occupied blocks per task id
system.cpu.dcache.tags.age_task_id_blocks_1024::3           26                       # Occupied blocks per task id
system.cpu.dcache.tags.occ_task_id_percent::1024            1                       # Percentage of cache occupancy per task id
system.cpu.dcache.tags.tag_accesses          52727405                       # Number of tag accesses
system.cpu.dcache.tags.data_accesses         52727405                       # Number of data accesses
system.cpu.itb.walker.pwrStateResidencyTicks::UNDEFINED 159431737000                       # Cumulative time (in ticks) in various power states
system.cpu.itb.stage2_mmu.stage2_tlb.walker.pwrStateResidencyTicks::UNDEFINED 159431737000                       # Cumulative time (in ticks) in various power states

---------- End Simulation Statistics   ----------
